CN1C2CCC1CC(C2)NC(=O)c3nn(C)c4ccccc34
CHcorina  02210111253D 1   1.00000     0.00000     0
CORINA evaluation copy  2.4  150  11.12.1900 (2001-3)
 44 47  0  0  0  0              1 V2000
   -0.0857    1.4583   -0.0422 C   0  0  0
   -0.0400   -0.0053   -0.0304 N   0  0  0
    0.4645   -0.4361    1.3002 C   0  0  0
   -0.6828   -0.0476    2.2625 C   0  0  0
   -1.9527   -0.3007    1.4194 C   0  0  0
   -1.4465   -0.4964   -0.0239 C   0  0  0
   -1.3523   -2.0043   -0.2978 C   0  0  0
   -0.5289   -2.7274    0.7534 C   0  0  0
    0.6569   -1.9448    1.2841 C   0  0  0
   -1.3640   -3.2105    1.8554 N   0  0  0
   -2.0148   -4.3853    1.7429 C   0  0  0
   -1.9087   -5.0443    0.7263 O   0  0  0
   -2.8552   -4.8714    2.8518 C   0  0  0
   -3.0688   -4.2692    4.0020 N   0  0  0
   -3.8501   -4.9479    4.7617 N   0  0  0
   -4.2687   -4.5304    6.1021 C   0  0  0
   -4.2424   -6.1133    4.1565 C   0  0  0
   -5.0581   -7.1796    4.5216 C   0  0  0
   -5.2453   -8.2193    3.6543 C   0  0  0
   -4.6308   -8.2283    2.4086 C   0  0  0
   -3.8240   -7.1935    2.0248 C   0  0  0
   -3.6257   -6.1213    2.8901 C   0  0  0
    0.9302    1.8534   -0.0472 H   0  0  0
   -0.6122    1.7982   -0.9340 H   0  0  0
   -0.6090    1.8126    0.8459 H   0  0  0
    1.3937    0.0851    1.5605 H   0  0  0
   -0.6769   -0.6953    3.1430 H   0  0  0
   -0.6138    0.9936    2.5683 H   0  0  0
   -2.5067   -1.1595    1.7781 H   0  0  0
   -2.6029    0.5833    1.4691 H   0  0  0
   -2.0668    0.0335   -0.7603 H   0  0  0
   -2.3666   -2.4337   -0.3331 H   0  0  0
   -0.9065   -2.1675   -1.2926 H   0  0  0
   -0.1132   -3.6415    0.2669 H   0  0  0
    1.5389   -2.1794    0.6733 H   0  0  0
    0.8776   -2.2821    2.3054 H   0  0  0
   -1.4486   -2.6848    2.6662 H   0  0  0
   -5.1845   -3.9436    6.0304 H   0  0  0
   -4.4491   -5.4118    6.7174 H   0  0  0
   -3.4839   -3.9250    6.5556 H   0  0  0
   -5.5415   -7.1860    5.4873 H   0  0  0
   -5.8792   -9.0451    3.9415 H   0  0  0
   -4.7914   -9.0595    1.7380 H   0  0  0
   -3.3481   -7.2053    1.0554 H   0  0  0
  1  2  1  0
  1 23  1  0
  1 24  1  0
  1 25  1  0
  2  6  1  0
  2  3  1  0
  3  9  1  0
  3  4  1  0
  3 26  1  0
  4  5  1  0
  4 27  1  0
  4 28  1  0
  5  6  1  0
  5 29  1  0
  5 30  1  0
  6  7  1  0
  6 31  1  0
  7  8  1  0
  7 32  1  0
  7 33  1  0
  8  9  1  0
  8 10  1  0
  8 34  1  0
  9 35  1  0
  9 36  1  0
 10 11  1  0
 10 37  1  0
 11 12  2  0
 11 13  1  0
 13 22  4  0
 13 14  4  0
 14 15  4  0
 15 16  1  0
 15 17  4  0
 16 38  1  0
 16 39  1  0
 16 40  1  0
 17 22  4  0
 17 18  4  0
 18 19  4  0
 18 41  1  0
 19 20  4  0
 19 42  1  0
 20 21  4  0
 20 43  1  0
 21 22  4  0
 21 44  1  0
M  END
$$$$
CN1C2CCC1CC(C2)NC(=O)c3nn(C)c4ccccc34
CHcorina  02210111253D 1   1.00000     0.00000     0
CORINA evaluation copy  2.4  150  11.12.1900 (2001-3)
 44 47  0  0  0  0              1 V2000
    1.2210    0.8757    0.3121 C   0  0  0
    0.2291   -0.1693    0.0407 N   0  0  0
    0.6329   -1.3740    0.8048 C   0  0  0
    0.1394   -1.1686    2.2528 C   0  0  0
   -0.8110    0.0441    2.1847 C   0  0  0
   -1.0442    0.2465    0.6735 C   0  0  0
   -2.0989   -0.7411    0.2033 C   0  0  0
   -1.7136   -2.2007    0.3084 C   0  0  0
   -0.2280   -2.5099    0.2264 C   0  0  0
   -2.3116   -2.8016    1.5064 N   0  0  0
   -2.6312   -4.1109    1.5156 C   0  0  0
   -2.4240   -4.7943    0.5313 O   0  0  0
   -3.2317   -4.7144    2.7187 C   0  0  0
   -3.5177   -4.1036    3.8485 N   0  0  0
   -4.0343   -4.9036    4.7095 N   0  0  0
   -4.4547   -4.5096    6.0565 C   0  0  0
   -4.1423   -6.1735    4.2057 C   0  0  0
   -4.6160   -7.3853    4.6984 C   0  0  0
   -4.5786   -8.5004    3.9090 C   0  0  0
   -4.0725   -8.4428    2.6168 C   0  0  0
   -3.6002   -7.2650    2.1079 C   0  0  0
   -3.6358   -6.1158    2.8925 C   0  0  0
    2.1729    0.5997   -0.1415 H   0  0  0
    0.8780    1.8205   -0.1095 H   0  0  0
    1.3495    0.9838    1.3891 H   0  0  0
    1.7107   -1.5741    0.7458 H   0  0  0
   -0.3623   -2.0498    2.6356 H   0  0  0
    0.9902   -0.9320    2.9043 H   0  0  0
   -1.7535   -0.1807    2.6905 H   0  0  0
   -0.3519    0.9245    2.6339 H   0  0  0
   -1.3068    1.2816    0.4323 H   0  0  0
   -3.0152   -0.5721    0.7861 H   0  0  0
   -2.3461   -0.5125   -0.8426 H   0  0  0
   -2.1965   -2.7191   -0.5553 H   0  0  0
    0.0571   -2.6827   -0.8234 H   0  0  0
   -0.0127   -3.4420    0.7722 H   0  0  0
   -2.4768   -2.2565    2.2915 H   0  0  0
   -5.4966   -4.1904    6.0331 H   0  0  0
   -4.3497   -5.3582    6.7325 H   0  0  0
   -3.8305   -3.6872    6.4059 H   0  0  0
   -5.0116   -7.4447    5.7016 H   0  0  0
   -4.9473   -9.4392    4.2953 H   0  0  0
   -4.0516   -9.3355    2.0093 H   0  0  0
   -3.2073   -7.2254    1.1027 H   0  0  0
  1  2  1  0
  1 23  1  0
  1 24  1  0
  1 25  1  0
  2  6  1  0
  2  3  1  0
  3  9  1  0
  3  4  1  0
  3 26  1  0
  4  5  1  0
  4 27  1  0
  4 28  1  0
  5  6  1  0
  5 29  1  0
  5 30  1  0
  6  7  1  0
  6 31  1  0
  7  8  1  0
  7 32  1  0
  7 33  1  0
  8  9  1  0
  8 10  1  0
  8 34  1  0
  9 35  1  0
  9 36  1  0
 10 11  1  0
 10 37  1  0
 11 12  2  0
 11 13  1  0
 13 22  4  0
 13 14  4  0
 14 15  4  0
 15 16  1  0
 15 17  4  0
 16 38  1  0
 16 39  1  0
 16 40  1  0
 17 22  4  0
 17 18  4  0
 18 19  4  0
 18 41  1  0
 19 20  4  0
 19 42  1  0
 20 21  4  0
 20 43  1  0
 21 22  4  0
 21 44  1  0
M  END
$$$$
CN1C2CCC1CC(C2)NC(=O)c3nn(C)c4ccccc34
CHcorina  02210111253D 1   1.00000     1.00000     0
CORINA evaluation copy  2.4  150  11.12.1900 (2001-3)
 44 47  0  0  0  0              1 V2000
   -0.2097    1.4941    0.1246 C   0  0  0
   -0.3717    0.0437    0.2447 N   0  0  0
    0.2112   -0.5715   -0.9769 C   0  0  0
   -0.4690   -1.9595   -1.0399 C   0  0  0
   -1.8918   -1.6807   -0.5056 C   0  0  0
   -1.8222   -0.2690    0.1107 C   0  0  0
   -2.3604    0.7314   -0.9222 C   0  0  0
   -1.6599    0.6031   -2.2635 C   0  0  0
   -0.1828    0.2687   -2.1820 C   0  0  0
   -2.3541   -0.3357   -3.1477 N   0  0  0
   -3.4046    0.0813   -3.8818 C   0  0  0
   -3.7761    1.2371   -3.8101 O   0  0  0
   -4.1032   -0.8635   -4.7717 C   0  0  0
   -3.8208   -2.1363   -4.9481 N   0  0  0
   -4.6140   -2.6919   -5.7910 N   0  0  0
   -4.5441   -4.1003   -6.1883 C   0  0  0
   -5.5349   -1.7974   -6.2707 C   0  0  0
   -6.5897   -1.8684   -7.1751 C   0  0  0
   -7.3356   -0.7534   -7.4371 C   0  0  0
   -7.0555    0.4551   -6.8121 C   0  0  0
   -6.0245    0.5527   -5.9196 C   0  0  0
   -5.2569   -0.5726   -5.6329 C   0  0  0
    0.8454    1.7510    0.2193 H   0  0  0
   -0.5775    1.8215   -0.8478 H   0  0  0
   -0.7764    1.9895    0.9130 H   0  0  0
    1.3004   -0.6674   -0.8923 H   0  0  0
   -0.5145   -2.3146   -2.0727 H   0  0  0
    0.0490   -2.6878   -0.4204 H   0  0  0
   -2.6345   -1.7474   -1.2911 H   0  0  0
   -2.1369   -2.4153    0.2735 H   0  0  0
   -2.3433   -0.2080    1.0763 H   0  0  0
   -3.4431    0.5742   -1.0538 H   0  0  0
   -2.2355    1.7566   -0.5371 H   0  0  0
   -1.7325    1.5982   -2.7632 H   0  0  0
    0.3920    1.2042   -2.1604 H   0  0  0
    0.1119   -0.2655   -3.0948 H   0  0  0
   -2.0578   -1.2575   -3.2049 H   0  0  0
   -5.1661   -4.6972   -5.5213 H   0  0  0
   -4.9026   -4.2072   -7.2121 H   0  0  0
   -3.5116   -4.4442   -6.1271 H   0  0  0
   -6.8182   -2.8013   -7.6687 H   0  0  0
   -8.1535   -0.8127   -8.1398 H   0  0  0
   -7.6568    1.3246   -7.0333 H   0  0  0
   -5.8105    1.4946   -5.4366 H   0  0  0
  1  2  1  0
  1 23  1  0
  1 24  1  0
  1 25  1  0
  2  6  1  0
  2  3  1  0
  3  9  1  0
  3  4  1  0
  3 26  1  0
  4  5  1  0
  4 27  1  0
  4 28  1  0
  5  6  1  0
  5 29  1  0
  5 30  1  0
  6  7  1  0
  6 31  1  0
  7  8  1  0
  7 32  1  0
  7 33  1  0
  8  9  1  0
  8 10  1  0
  8 34  1  0
  9 35  1  0
  9 36  1  0
 10 11  1  0
 10 37  1  0
 11 12  2  0
 11 13  1  0
 13 22  4  0
 13 14  4  0
 14 15  4  0
 15 16  1  0
 15 17  4  0
 16 38  1  0
 16 39  1  0
 16 40  1  0
 17 22  4  0
 17 18  4  0
 18 19  4  0
 18 41  1  0
 19 20  4  0
 19 42  1  0
 20 21  4  0
 20 43  1  0
 21 22  4  0
 21 44  1  0
M  END
$$$$
