CCC(C)C(=O)OC1CC(C)C=C2C=CC(C)C(CCC3CC(O)CC(=O)O3)C12
CHcorina  02210111263D 1   1.00000     0.00000     0
CORINA evaluation copy  2.4  150  11.12.1900 (2001-3)
 65 67  0  0  0  0              1 V2000
   -3.0768    0.9383    3.6943 C   0  0  0
   -2.6527   -0.1074    2.6612 C   0  0  0
   -3.8591   -0.9687    2.2823 C   0  0  0
   -4.8764   -0.1153    1.5222 C   0  0  0
   -3.4071   -2.1096    1.4076 C   0  0  0
   -2.2282   -2.3390    1.2753 O   0  0  0
   -4.3141   -2.8709    0.7756 O   0  0  0
   -3.8904   -4.0601    0.0583 C   0  0  0
   -3.7312   -5.2268    1.0413 C   0  0  0
   -5.0154   -5.3454    1.8643 C   0  0  0
   -5.1052   -4.1668    2.8357 C   0  0  0
   -6.2137   -5.3380    0.9623 C   0  0  0
   -6.1919   -4.9347   -0.2900 C   0  0  0
   -7.4472   -4.9534   -1.0844 C   0  0  0
   -7.6805   -3.8411   -1.7977 C   0  0  0
   -6.6690   -2.7274   -1.6882 C   0  0  0
   -6.7849   -2.0782   -0.3077 C   0  0  0
   -5.2530   -3.2514   -1.8758 C   0  0  0
   -4.2635   -2.1278   -1.5604 C   0  0  0
   -4.3668   -1.0413   -2.6326 C   0  0  0
   -3.3471    0.0614   -2.3412 C   0  0  0
   -3.3271    1.0613   -3.5013 C   0  0  0
   -2.3733    2.2114   -3.1652 C   0  0  0
   -2.3358    3.1349   -4.2549 O   0  0  0
   -2.8733    2.9264   -1.9043 C   0  0  0
   -3.0530    1.8957   -0.8106 C   0  0  0
   -2.6141    2.0791    0.3001 O   0  0  0
   -3.7223    0.7628   -1.1202 O   0  0  0
   -4.9493   -4.4414   -0.9772 C   0  0  0
   -2.2173    1.5519    3.9642 H   0  0  0
   -3.8568    1.5715    3.2714 H   0  0  0
   -3.4586    0.4365    4.5835 H   0  0  0
   -2.2709    0.3944    1.7720 H   0  0  0
   -1.8727   -0.7405    3.0841 H   0  0  0
   -4.3209   -1.3650    3.1866 H   0  0  0
   -4.4718    0.1478    0.5449 H   0  0  0
   -5.7999   -0.6797    1.3931 H   0  0  0
   -5.0822    0.7939    2.0870 H   0  0  0
   -2.9408   -3.8684   -0.4414 H   0  0  0
   -3.5636   -6.1512    0.4887 H   0  0  0
   -2.8876   -5.0347    1.7043 H   0  0  0
   -4.9974   -6.2777    2.4288 H   0  0  0
   -5.4112   -3.2719    2.2939 H   0  0  0
   -5.8377   -4.3902    3.6114 H   0  0  0
   -4.1306   -3.9986    3.2939 H   0  0  0
   -7.1532   -5.6857    1.3659 H   0  0  0
   -8.1203   -5.7979   -1.0878 H   0  0  0
   -8.5554   -3.7472   -2.4240 H   0  0  0
   -6.8767   -1.9794   -2.4534 H   0  0  0
   -7.8244   -1.8102   -0.1183 H   0  0  0
   -6.4464   -2.7808    0.4538 H   0  0  0
   -6.1667   -1.1811   -0.2749 H   0  0  0
   -5.1235   -3.5534   -2.9150 H   0  0  0
   -4.4983   -1.6999   -0.5857 H   0  0  0
   -3.2503   -2.5293   -1.5464 H   0  0  0
   -4.1623   -1.4759   -3.6111 H   0  0  0
   -5.3714   -0.6184   -2.6257 H   0  0  0
   -2.3576   -0.3792   -2.2197 H   0  0  0
   -2.9871    0.5600   -4.4075 H   0  0  0
   -4.3310    1.4558   -3.6586 H   0  0  0
   -1.3732    1.8155   -2.9885 H   0  0  0
   -1.7253    3.8410   -4.0021 H   0  0  0
   -2.1421    3.6712   -1.5902 H   0  0  0
   -3.8270    3.4119   -2.1114 H   0  0  0
   -4.5604   -5.2535   -1.5916 H   0  0  0
  1  2  1  0
  1 30  1  0
  1 31  1  0
  1 32  1  0
  2  3  1  0
  2 33  1  0
  2 34  1  0
  3  4  1  0
  3  5  1  0
  3 35  1  0
  4 36  1  0
  4 37  1  0
  4 38  1  0
  5  6  2  0
  5  7  1  0
  7  8  1  0
  8 29  1  0
  8  9  1  0
  8 39  1  0
  9 10  1  0
  9 40  1  0
  9 41  1  0
 10 11  1  0
 10 12  1  0
 10 42  1  0
 11 43  1  0
 11 44  1  0
 11 45  1  0
 12 13  2  0
 12 46  1  0
 13 29  1  0
 13 14  1  0
 14 15  2  0
 14 47  1  0
 15 16  1  0
 15 48  1  0
 16 17  1  0
 16 18  1  0
 16 49  1  0
 17 50  1  0
 17 51  1  0
 17 52  1  0
 18 19  1  0
 18 29  1  0
 18 53  1  0
 19 20  1  0
 19 54  1  0
 19 55  1  0
 20 21  1  0
 20 56  1  0
 20 57  1  0
 21 28  1  0
 21 22  1  0
 21 58  1  0
 22 23  1  0
 22 59  1  0
 22 60  1  0
 23 24  1  0
 23 25  1  0
 23 61  1  0
 24 62  1  0
 25 26  1  0
 25 63  1  0
 25 64  1  0
 26 27  2  0
 26 28  1  0
 29 65  1  0
M  END
$$$$
CCC(C)C(=O)OC1CC(C)C=C2C=CC(C)C(CCC3CC(O)CC(=O)O3)C12
CHcorina  02210111263D 1   1.00000     6.00000     0
CORINA evaluation copy  2.4  150  11.12.1900 (2001-3)
 65 67  0  0  0  0              1 V2000
    0.4548   -0.2659    0.9035 C   0  0  0
    0.1110   -1.7567    0.8865 C   0  0  0
   -1.3910   -1.9311    0.6533 C   0  0  0
   -1.7751   -1.3038   -0.6883 C   0  0  0
   -1.7296   -3.3994    0.6365 C   0  0  0
   -0.8802   -4.2122    0.3576 O   0  0  0
   -2.9749   -3.8044    0.9314 O   0  0  0
   -3.2701   -5.2217    1.0428 C   0  0  0
   -2.9178   -5.7134    2.4524 C   0  0  0
   -3.5932   -4.7919    3.4698 C   0  0  0
   -2.8951   -3.4305    3.4619 C   0  0  0
   -5.0415   -4.6094    3.1250 C   0  0  0
   -5.5619   -4.8952    1.9507 C   0  0  0
   -7.0091   -4.6546    1.7161 C   0  0  0
   -7.2992   -4.0432    0.5575 C   0  0  0
   -6.1405   -3.6670   -0.3321 C   0  0  0
   -5.3827   -2.4971    0.2988 C   0  0  0
   -5.1868   -4.8379   -0.5162 C   0  0  0
   -3.9397   -4.3492   -1.2557 C   0  0  0
   -4.3046   -4.0108   -2.7025 C   0  0  0
   -3.0497   -3.5600   -3.4529 C   0  0  0
   -1.9904   -4.6645   -3.3917 C   0  0  0
   -2.5118   -5.9099   -4.1146 C   0  0  0
   -3.7242   -6.3479   -3.4980 O   0  0  0
   -2.7800   -5.5624   -5.5838 C   0  0  0
   -3.6955   -4.3580   -5.6300 C   0  0  0
   -4.6728   -4.3420   -6.3403 O   0  0  0
   -3.3814   -3.3011   -4.8480 O   0  0  0
   -4.7629   -5.4567    0.8079 C   0  0  0
    1.5249   -0.1416    1.0696 H   0  0  0
    0.1812    0.1810   -0.0523 H   0  0  0
   -0.0968    0.2250    1.7053 H   0  0  0
    0.6626   -2.2476    0.0847 H   0  0  0
    0.3846   -2.2036    1.8422 H   0  0  0
   -1.9426   -1.4401    1.4551 H   0  0  0
   -1.2817   -1.8438   -1.4964 H   0  0  0
   -2.8556   -1.3607   -0.8200 H   0  0  0
   -1.4616   -0.2600   -0.7044 H   0  0  0
   -2.6907   -5.7763    0.3047 H   0  0  0
   -3.2787   -6.7332    2.5856 H   0  0  0
   -1.8371   -5.6830    2.5915 H   0  0  0
   -3.5141   -5.2322    4.4638 H   0  0  0
   -3.1455   -2.8991    2.5438 H   0  0  0
   -3.2264   -2.8473    4.3211 H   0  0  0
   -1.8161   -3.5752    3.5152 H   0  0  0
   -5.6983   -4.2192    3.8884 H   0  0  0
   -7.7695   -4.9498    2.4239 H   0  0  0
   -8.3191   -3.8297    0.2737 H   0  0  0
   -6.5223   -3.3615   -1.3063 H   0  0  0
   -6.0856   -1.7036    0.5527 H   0  0  0
   -4.8767   -2.8371    1.2024 H   0  0  0
   -4.6461   -2.1173   -0.4091 H   0  0  0
   -5.6778   -5.6012   -1.1198 H   0  0  0
   -3.5497   -3.4593   -0.7617 H   0  0  0
   -3.1813   -5.1320   -1.2459 H   0  0  0
   -4.7209   -4.8933   -3.1882 H   0  0  0
   -5.0421   -3.2083   -2.7130 H   0  0  0
   -2.6575   -2.6514   -2.9960 H   0  0  0
   -1.0766   -4.3192   -3.8754 H   0  0  0
   -1.7803   -4.9097   -2.3506 H   0  0  0
   -1.7666   -6.7033   -4.0577 H   0  0  0
   -4.0171   -7.1316   -3.9829 H   0  0  0
   -1.8399   -5.3284   -6.0833 H   0  0  0
   -3.2589   -6.4069   -6.0793 H   0  0  0
   -4.9452   -6.5306    0.7665 H   0  0  0
  1  2  1  0
  1 30  1  0
  1 31  1  0
  1 32  1  0
  2  3  1  0
  2 33  1  0
  2 34  1  0
  3  4  1  0
  3  5  1  0
  3 35  1  0
  4 36  1  0
  4 37  1  0
  4 38  1  0
  5  6  2  0
  5  7  1  0
  7  8  1  0
  8 29  1  0
  8  9  1  0
  8 39  1  0
  9 10  1  0
  9 40  1  0
  9 41  1  0
 10 11  1  0
 10 12  1  0
 10 42  1  0
 11 43  1  0
 11 44  1  0
 11 45  1  0
 12 13  2  0
 12 46  1  0
 13 29  1  0
 13 14  1  0
 14 15  2  0
 14 47  1  0
 15 16  1  0
 15 48  1  0
 16 17  1  0
 16 18  1  0
 16 49  1  0
 17 50  1  0
 17 51  1  0
 17 52  1  0
 18 19  1  0
 18 29  1  0
 18 53  1  0
 19 20  1  0
 19 54  1  0
 19 55  1  0
 20 21  1  0
 20 56  1  0
 20 57  1  0
 21 28  1  0
 21 22  1  0
 21 58  1  0
 22 23  1  0
 22 59  1  0
 22 60  1  0
 23 24  1  0
 23 25  1  0
 23 61  1  0
 24 62  1  0
 25 26  1  0
 25 63  1  0
 25 64  1  0
 26 27  2  0
 26 28  1  0
 29 65  1  0
M  END
$$$$
CCC(C)C(=O)OC1CC(C)C=C2C=CC(C)C(CCC3CC(O)CC(=O)O3)C12
CHcorina  02210111263D 1   1.00000    23.00000     0
CORINA evaluation copy  2.4  150  11.12.1900 (2001-3)
 65 67  0  0  0  0              1 V2000
   -0.8121    2.2524    1.4469 C   0  0  0
   -0.7593    0.7923    1.9009 C   0  0  0
   -2.0415    0.0775    1.4696 C   0  0  0
   -2.1688    0.1336   -0.0540 C   0  0  0
   -1.9895   -1.3607    1.9168 C   0  0  0
   -0.9560   -1.8264    2.3349 O   0  0  0
   -3.0915   -2.1243    1.8506 O   0  0  0
   -3.0824   -3.4624    2.4143 C   0  0  0
   -3.1508   -3.3787    3.9444 C   0  0  0
   -4.3299   -2.4827    4.3282 C   0  0  0
   -3.9971   -1.0306    3.9797 C   0  0  0
   -5.5643   -2.9012    3.5861 C   0  0  0
   -5.5580   -3.6706    2.5186 C   0  0  0
   -6.8434   -4.0048    1.8527 C   0  0  0
   -6.8339   -3.8877    0.5160 C   0  0  0
   -5.5509   -3.4211   -0.1257 C   0  0  0
   -5.3470   -1.9363    0.1821 C   0  0  0
   -4.3579   -4.2074    0.3970 C   0  0  0
   -3.0729   -3.5670   -0.1317 C   0  0  0
   -2.8969   -3.9217   -1.6096 C   0  0  0
   -1.6498   -3.2243   -2.1565 C   0  0  0
   -1.3797   -3.6974   -3.5857 C   0  0  0
   -0.0847   -3.0957   -4.1229 C   0  0  0
   -0.1747   -2.9828   -5.5446 O   0  0  0
    0.1695   -1.7127   -3.5254 C   0  0  0
   -1.1477   -1.0943   -3.1099 C   0  0  0
   -1.5374   -0.0495   -3.5752 O   0  0  0
   -1.8665   -1.7796   -2.1858 O   0  0  0
   -4.3028   -4.2387    1.9175 C   0  0  0
    0.1014    2.7617    1.7541 H   0  0  0
   -0.9028    2.2924    0.3614 H   0  0  0
   -1.6724    2.7435    1.9017 H   0  0  0
    0.1010    0.3013    1.4461 H   0  0  0
   -0.6686    0.7524    2.9864 H   0  0  0
   -2.9018    0.5685    1.9244 H   0  0  0
   -1.3586   -0.4374   -0.5076 H   0  0  0
   -3.1261   -0.2924   -0.3546 H   0  0  0
   -2.1125    1.1704   -0.3854 H   0  0  0
   -2.1712   -3.9804    2.1150 H   0  0  0
   -3.2980   -4.3757    4.3596 H   0  0  0
   -2.2252   -2.9511    4.3296 H   0  0  0
   -4.5111   -2.5642    5.4000 H   0  0  0
   -4.0764   -0.8883    2.9020 H   0  0  0
   -4.6967   -0.3659    4.4864 H   0  0  0
   -2.9812   -0.8031    4.3025 H   0  0  0
   -6.5180   -2.5492    3.9508 H   0  0  0
   -7.7185   -4.3185    2.4025 H   0  0  0
   -7.7077   -4.1181   -0.0754 H   0  0  0
   -5.6216   -3.5559   -1.2050 H   0  0  0
   -6.2422   -1.3810   -0.0979 H   0  0  0
   -5.1589   -1.8088    1.2481 H   0  0  0
   -4.4947   -1.5615   -0.3847 H   0  0  0
   -4.4200   -5.2305    0.0263 H   0  0  0
   -3.1351   -2.4842   -0.0228 H   0  0  0
   -2.2206   -3.9408    0.4357 H   0  0  0
   -2.7846   -5.0010   -1.7133 H   0  0  0
   -3.7724   -3.5921   -2.1691 H   0  0  0
   -0.7929   -3.4544   -1.5232 H   0  0  0
   -1.3003   -4.7844   -3.5943 H   0  0  0
   -2.2082   -3.3944   -4.2260 H   0  0  0
    0.7472   -3.7524   -3.8685 H   0  0  0
    0.6597   -2.5996   -5.8479 H   0  0  0
    0.8187   -1.8059   -2.6548 H   0  0  0
    0.6514   -1.0778   -4.2688 H   0  0  0
   -4.2138   -5.2751    2.2431 H   0  0  0
  1  2  1  0
  1 30  1  0
  1 31  1  0
  1 32  1  0
  2  3  1  0
  2 33  1  0
  2 34  1  0
  3  4  1  0
  3  5  1  0
  3 35  1  0
  4 36  1  0
  4 37  1  0
  4 38  1  0
  5  6  2  0
  5  7  1  0
  7  8  1  0
  8 29  1  0
  8  9  1  0
  8 39  1  0
  9 10  1  0
  9 40  1  0
  9 41  1  0
 10 11  1  0
 10 12  1  0
 10 42  1  0
 11 43  1  0
 11 44  1  0
 11 45  1  0
 12 13  2  0
 12 46  1  0
 13 29  1  0
 13 14  1  0
 14 15  2  0
 14 47  1  0
 15 16  1  0
 15 48  1  0
 16 17  1  0
 16 18  1  0
 16 49  1  0
 17 50  1  0
 17 51  1  0
 17 52  1  0
 18 19  1  0
 18 29  1  0
 18 53  1  0
 19 20  1  0
 19 54  1  0
 19 55  1  0
 20 21  1  0
 20 56  1  0
 20 57  1  0
 21 28  1  0
 21 22  1  0
 21 58  1  0
 22 23  1  0
 22 59  1  0
 22 60  1  0
 23 24  1  0
 23 25  1  0
 23 61  1  0
 24 62  1  0
 25 26  1  0
 25 63  1  0
 25 64  1  0
 26 27  2  0
 26 28  1  0
 29 65  1  0
M  END
$$$$
