COc1c(C)c2COC(=O)c2c(O)c1CC=C(C)CCC(=O)O
CHcorina  02210111253D 1   1.00000     0.00000     0
CORINA evaluation copy  2.4  150  11.12.1900 (2001-3)
 43 44  0  0  0  0              1 V2000
    0.7587    1.5177   -0.5178 C   0  0  0
    0.6897    0.0952   -0.4004 O   0  0  0
   -0.5737   -0.2051   -0.0066 C   0  0  0
   -0.8801   -0.2743    1.3507 C   0  0  0
    0.1927   -0.0156    2.3771 C   0  0  0
   -2.1455   -0.5746    1.7528 C   0  0  0
   -2.7917   -0.7249    3.1076 C   0  0  0
   -4.1854   -1.0580    2.8610 O   0  0  0
   -4.3949   -1.1117    1.5345 C   0  0  0
   -5.4609   -1.3674    1.0097 O   0  0  0
   -3.1522   -0.8174    0.8097 C   0  0  0
   -2.8467   -0.7488   -0.5586 C   0  0  0
   -3.8098   -0.9806   -1.4852 O   0  0  0
   -1.5576   -0.4365   -0.9567 C   0  0  0
   -1.2204   -0.3602   -2.4235 C   0  0  0
   -1.4440    1.0458   -2.9178 C   0  0  0
   -0.4893    1.6750   -3.5570 C   0  0  0
    0.7688    0.9413   -3.9442 C   0  0  0
   -0.6490    3.1325   -3.9051 C   0  0  0
   -0.1018    3.9923   -2.7639 C   0  0  0
   -0.2616    5.4498   -3.1120 C   0  0  0
   -0.7618    5.7682   -4.1648 O   0  0  0
    0.1518    6.3944   -2.2525 O   0  0  0
    1.7607    1.8080   -0.8338 H   0  0  0
    0.0323    1.8569   -1.2563 H   0  0  0
    0.5357    1.9731    0.4470 H   0  0  0
    0.2129    1.0464    2.6217 H   0  0  0
   -0.0195   -0.5919    3.2776 H   0  0  0
    1.1605   -0.3141    1.9742 H   0  0  0
   -2.3084   -1.5266    3.6660 H   0  0  0
   -2.7230    0.2116    3.6610 H   0  0  0
   -4.2224   -0.1278   -1.6789 H   0  0  0
   -0.1761   -0.6354   -2.5710 H   0  0  0
   -1.8590   -1.0467   -2.9793 H   0  0  0
   -2.3915    1.5346   -2.7451 H   0  0  0
    0.6622   -0.1159   -3.7014 H   0  0  0
    0.9395    1.0528   -5.0150 H   0  0  0
    1.6148    1.3564   -3.3963 H   0  0  0
   -0.0982    3.3500   -4.8202 H   0  0  0
   -1.7052    3.3567   -4.0547 H   0  0  0
   -0.6526    3.7748   -1.8488 H   0  0  0
    0.9543    3.7682   -2.6143 H   0  0  0
    0.0493    7.3296   -2.4759 H   0  0  0
  1  2  1  0
  1 24  1  0
  1 25  1  0
  1 26  1  0
  2  3  1  0
  3 14  4  0
  3  4  4  0
  4  5  1  0
  4  6  4  0
  5 27  1  0
  5 28  1  0
  5 29  1  0
  6 11  4  0
  6  7  1  0
  7  8  1  0
  7 30  1  0
  7 31  1  0
  8  9  1  0
  9 10  2  0
  9 11  1  0
 11 12  4  0
 12 13  1  0
 12 14  4  0
 13 32  1  0
 14 15  1  0
 15 16  1  0
 15 33  1  0
 15 34  1  0
 16 17  2  0
 16 35  1  0
 17 18  1  0
 17 19  1  0
 18 36  1  0
 18 37  1  0
 18 38  1  0
 19 20  1  0
 19 39  1  0
 19 40  1  0
 20 21  1  0
 20 41  1  0
 20 42  1  0
 21 22  2  0
 21 23  1  0
 23 43  1  0
M  END
$$$$
