CC1(C)C(C=C(Cl)Cl)C1C(=O)OCc2cccc(Oc3ccccc3)c2
CHcorina  02210111263D 1   1.00000     0.00000     0
CORINA evaluation copy  2.4  150  11.12.1900 (2001-3)
 46 48  0  0  0  0              1 V2000
   -0.0518    1.6041   -0.0284 C   0  0  0
   -0.0160    0.0745   -0.0288 C   0  0  0
    1.1294   -0.5585   -0.8213 C   0  0  0
   -0.4786   -0.6433    1.2407 C   0  0  0
   -0.9346    0.2104    2.3959 C   0  0  0
   -0.3162    0.1354    3.5521 C   0  0  0
   -0.8415    1.1188    4.8827 Cl  0  0  0
    1.0264   -0.9472    3.7497 Cl  0  0  0
   -1.3561   -0.6635   -0.0124 C   0  0  0
   -2.6104    0.1718    0.0029 C   0  0  0
   -2.5332    1.3776    0.0022 O   0  0  0
   -3.8132   -0.4238    0.0173 O   0  0  0
   -5.0217    0.3810    0.0321 C   0  0  0
   -6.2272   -0.5231    0.0465 C   0  0  0
   -6.4300   -1.4206   -0.9859 C   0  0  0
   -7.5347   -2.2518   -0.9755 C   0  0  0
   -8.4392   -2.1877    0.0670 C   0  0  0
   -8.2381   -1.2882    1.1039 C   0  0  0
   -9.1259   -1.2236    2.1306 O   0  0  0
   -8.6098   -0.3580    3.0421 C   0  0  0
   -8.9921    0.9760    3.0281 C   0  0  0
   -8.4661    1.8537    3.9557 C   0  0  0
   -7.5590    1.4043    4.8979 C   0  0  0
   -7.1761    0.0760    4.9138 C   0  0  0
   -7.7040   -0.8075    3.9920 C   0  0  0
   -7.1255   -0.4587    1.0936 C   0  0  0
    0.9670    1.9914   -0.0409 H   0  0  0
   -0.5849    1.9553   -0.9119 H   0  0  0
   -0.5631    1.9553    0.8679 H   0  0  0
    2.0162    0.0705   -0.7436 H   0  0  0
    1.3484   -1.5468   -0.4169 H   0  0  0
    0.8397   -0.6504   -1.8681 H   0  0  0
    0.0336   -1.5665    1.5119 H   0  0  0
   -1.7698    0.8839    2.2729 H   0  0  0
   -1.4216   -1.6002   -0.5659 H   0  0  0
   -5.0285    1.0099    0.9223 H   0  0  0
   -5.0501    1.0103   -0.8575 H   0  0  0
   -5.7244   -1.4721   -1.8018 H   0  0  0
   -7.6910   -2.9516   -1.7831 H   0  0  0
   -9.3022   -2.8370    0.0744 H   0  0  0
   -9.7002    1.3276    2.2922 H   0  0  0
   -8.7630    2.8920    3.9450 H   0  0  0
   -7.1488    2.0922    5.6224 H   0  0  0
   -6.4673   -0.2724    5.6504 H   0  0  0
   -7.4045   -1.8450    4.0049 H   0  0  0
   -6.9665    0.2422    1.8998 H   0  0  0
  1  2  1  0
  1 27  1  0
  1 28  1  0
  1 29  1  0
  2  9  1  0
  2  3  1  0
  2  4  1  0
  3 30  1  0
  3 31  1  0
  3 32  1  0
  4  5  1  0
  4  9  1  0
  4 33  1  0
  5  6  2  0
  5 34  1  0
  6  7  1  0
  6  8  1  0
  9 10  1  0
  9 35  1  0
 10 11  2  0
 10 12  1  0
 12 13  1  0
 13 14  1  0
 13 36  1  0
 13 37  1  0
 14 26  4  0
 14 15  4  0
 15 16  4  0
 15 38  1  0
 16 17  4  0
 16 39  1  0
 17 18  4  0
 17 40  1  0
 18 19  1  0
 18 26  4  0
 19 20  1  0
 20 25  4  0
 20 21  4  0
 21 22  4  0
 21 41  1  0
 22 23  4  0
 22 42  1  0
 23 24  4  0
 23 43  1  0
 24 25  4  0
 24 44  1  0
 25 45  1  0
 26 46  1  0
M  END
$$$$
