CC(C)NCC(O)COc1ccc2[nH]ccc2c1
CHcorina  02210111253D 1   1.00000     0.00000     0
CORINA evaluation copy  2.4  150  11.12.1900 (2001-3)
 38 39  0  0  0  0              1 V2000
   -0.0187    1.5258    0.0104 C   0  0  0
    0.0021   -0.0041    0.0020 C   0  0  0
    0.7421   -0.5109    1.2415 C   0  0  0
   -1.3761   -0.5125    0.0124 N   0  0  0
   -1.3571   -1.7981   -0.6982 C   0  0  0
   -2.7690   -2.3869   -0.7249 C   0  0  0
   -3.6491   -1.4839   -1.3972 O   0  0  0
   -2.7493   -3.7258   -1.4650 C   0  0  0
   -4.0680   -4.2758   -1.4899 O   0  0  0
   -3.9881   -5.4583   -2.1568 C   0  0  0
   -2.7607   -5.8956   -2.6486 C   0  0  0
   -2.6620   -7.0904   -3.3255 C   0  0  0
   -3.7947   -7.8731   -3.5236 C   0  0  0
   -4.0114   -9.0845   -4.1459 N   0  0  0
   -3.3276   -9.6186   -4.5794 H   0  0  0
   -5.3347   -9.4207   -4.0601 C   0  0  0
   -6.0073   -8.4665   -3.3973 C   0  0  0
   -5.0355   -7.4344   -3.0282 C   0  0  0
   -5.1229   -6.2230   -2.3384 C   0  0  0
    1.0039    1.9031    0.0027 H   0  0  0
   -0.5459    1.8868   -0.8726 H   0  0  0
   -0.5289    1.8773    0.9072 H   0  0  0
    0.5123   -0.3556   -0.8948 H   0  0  0
    0.2319   -0.1594    2.1383 H   0  0  0
    0.7568   -1.6008    1.2356 H   0  0  0
    1.7647   -0.1336    1.2338 H   0  0  0
   -1.6027   -0.7163    0.9743 H   0  0  0
   -1.0085   -1.6436   -1.7193 H   0  0  0
   -0.6858   -2.4869   -0.1854 H   0  0  0
   -3.1176   -2.5414    0.2963 H   0  0  0
   -3.3057   -1.3750   -2.2946 H   0  0  0
   -2.4007   -3.5714   -2.4862 H   0  0  0
   -2.0779   -4.4146   -0.9522 H   0  0  0
   -1.8782   -5.2916   -2.4979 H   0  0  0
   -1.7052   -7.4198   -3.7030 H   0  0  0
   -5.7732  -10.3205   -4.4655 H   0  0  0
   -7.0648   -8.4607   -3.1781 H   0  0  0
   -6.0731   -5.8854   -1.9517 H   0  0  0
  1  2  1  0
  1 20  1  0
  1 21  1  0
  1 22  1  0
  2  3  1  0
  2  4  1  0
  2 23  1  0
  3 24  1  0
  3 25  1  0
  3 26  1  0
  4  5  1  0
  4 27  1  0
  5  6  1  0
  5 28  1  0
  5 29  1  0
  6  7  1  0
  6  8  1  0
  6 30  1  0
  7 31  1  0
  8  9  1  0
  8 32  1  0
  8 33  1  0
  9 10  1  0
 10 19  4  0
 10 11  4  0
 11 12  4  0
 11 34  1  0
 12 13  4  0
 12 35  1  0
 13 18  4  0
 13 14  4  0
 14 15  1  0
 14 16  4  0
 16 17  4  0
 16 36  1  0
 17 18  4  0
 17 37  1  0
 18 19  4  0
 19 38  1  0
M  END
$$$$
