CN1C(=C(O)c2ccccc2S1(=O)=O)C(=O)Nc3ccccn3
CHcorina  02130121013D 1   1.00000     0.00000     0
CORINA evaluation copy  2.4  150  11.12.1900 (2001-3)
 36 38  0  0  0  0              1 V2000
    0.9633    1.5773    0.8873 C   0  0  0
    0.4345    0.2477    0.5732 N   0  0  0
    1.2327   -0.6917   -0.1002 C   0  0  0
    1.1637   -2.0114    0.2044 C   0  0  0
    1.9383   -2.8877   -0.4797 O   0  0  0
    0.2699   -2.5165    1.2587 C   0  0  0
    0.4967   -3.7801    1.8152 C   0  0  0
   -0.3348   -4.2535    2.8073 C   0  0  0
   -1.3932   -3.4828    3.2563 C   0  0  0
   -1.6261   -2.2328    2.7098 C   0  0  0
   -0.8043   -1.7488    1.7143 C   0  0  0
   -1.1095   -0.1646    1.0153 S   0  0  0
   -1.4775    0.6959    2.0846 O   0  0  0
   -1.8385   -0.3755   -0.1860 O   0  0  0
    2.1239   -0.2538   -1.1129 C   0  0  0
    2.9250   -1.0325   -1.5975 O   0  0  0
    2.0842    1.0243   -1.5389 N   0  0  0
    3.0416    1.4889   -2.4371 C   0  0  0
    4.2062    0.7570   -2.6427 C   0  0  0
    5.1490    1.2301   -3.5378 C   0  0  0
    4.8939    2.4239   -4.1995 C   0  0  0
    3.7161    3.0986   -3.9468 C   0  0  0
    2.8325    2.6205   -3.0915 N   0  0  0
    2.0042    1.6387    0.5695 H   0  0  0
    0.3785    2.3339    0.3641 H   0  0  0
    0.9008    1.7487    1.9619 H   0  0  0
    1.7492   -3.7661   -0.1222 H   0  0  0
    1.3220   -4.3838    1.4675 H   0  0  0
   -0.1596   -5.2291    3.2362 H   0  0  0
   -2.0398   -3.8583    4.0355 H   0  0  0
   -2.4533   -1.6354    3.0639 H   0  0  0
    1.3888    1.6205   -1.2198 H   0  0  0
    4.3725   -0.1680   -2.1105 H   0  0  0
    6.0629    0.6834   -3.7176 H   0  0  0
    5.6095    2.8207   -4.9043 H   0  0  0
    3.5137    4.0277   -4.4589 H   0  0  0
  1  2  1  0
  1 24  1  0
  1 25  1  0
  1 26  1  0
  2 12  1  0
  2  3  1  0
  3  4  2  0
  3 15  1  0
  4  5  1  0
  4  6  1  0
  5 27  1  0
  6 11  4  0
  6  7  4  0
  7  8  4  0
  7 28  1  0
  8  9  4  0
  8 29  1  0
  9 10  4  0
  9 30  1  0
 10 11  4  0
 10 31  1  0
 11 12  1  0
 12 13  2  0
 12 14  2  0
 15 16  2  0
 15 17  1  0
 17 18  1  0
 17 32  1  0
 18 23  4  0
 18 19  4  0
 19 20  4  0
 19 33  1  0
 20 21  4  0
 20 34  1  0
 21 22  4  0
 21 35  1  0
 22 23  4  0
 22 36  1  0
M  END
$$$$
CN1C(=C(O)c2ccccc2S1(=O)=O)C(=O)Nc3ccccn3
CHcorina  02130121013D 1   1.00000     0.00000     0
CORINA evaluation copy  2.4  150  11.12.1900 (2001-3)
 36 38  0  0  0  0              1 V2000
   -0.5721    0.7932   -1.1001 C   0  0  0
   -0.0022    0.0262    0.0104 N   0  0  0
    1.1737   -0.7199   -0.1732 C   0  0  0
    1.3426   -1.9176    0.4399 C   0  0  0
    2.4986   -2.5986    0.2505 O   0  0  0
    0.3033   -2.4968    1.3060 C   0  0  0
    0.3259   -3.8649    1.5983 C   0  0  0
   -0.6497   -4.4118    2.4041 C   0  0  0
   -1.6527   -3.6124    2.9245 C   0  0  0
   -1.6815   -2.2580    2.6419 C   0  0  0
   -0.7096   -1.6974    1.8408 C   0  0  0
   -0.7355    0.0362    1.4974 S   0  0  0
    0.1674    0.6519    2.4057 O   0  0  0
   -2.0937    0.3962    1.2854 O   0  0  0
    2.1990   -0.2134   -1.0122 C   0  0  0
    3.1679   -0.9032   -1.2739 O   0  0  0
    2.1010    1.0312   -1.5199 N   0  0  0
    3.0392    1.4817   -2.4452 C   0  0  0
    3.8561    0.5660   -3.0998 C   0  0  0
    4.7839    1.0271   -4.0165 C   0  0  0
    4.8634    2.3939   -4.2483 C   0  0  0
    4.0209    3.2460   -3.5625 C   0  0  0
    3.1418    2.7771   -2.6976 N   0  0  0
   -0.0086    0.5880   -2.0103 H   0  0  0
   -1.6132    0.5046   -1.2445 H   0  0  0
   -0.5184    1.8577   -0.8718 H   0  0  0
    2.4287   -3.4158    0.7628 H   0  0  0
    1.1064   -4.4917    1.1929 H   0  0  0
   -0.6316   -5.4678    2.6298 H   0  0  0
   -2.4157   -4.0473    3.5530 H   0  0  0
   -2.4666   -1.6388    3.0501 H   0  0  0
    1.3769    1.6132   -1.2409 H   0  0  0
    3.7676   -0.4907   -2.8949 H   0  0  0
    5.4319    0.3397   -4.5398 H   0  0  0
    5.5772    2.7863   -4.9574 H   0  0  0
    4.0795    4.3098   -3.7394 H   0  0  0
  1  2  1  0
  1 24  1  0
  1 25  1  0
  1 26  1  0
  2 12  1  0
  2  3  1  0
  3  4  2  0
  3 15  1  0
  4  5  1  0
  4  6  1  0
  5 27  1  0
  6 11  4  0
  6  7  4  0
  7  8  4  0
  7 28  1  0
  8  9  4  0
  8 29  1  0
  9 10  4  0
  9 30  1  0
 10 11  4  0
 10 31  1  0
 11 12  1  0
 12 13  2  0
 12 14  2  0
 15 16  2  0
 15 17  1  0
 17 18  1  0
 17 32  1  0
 18 23  4  0
 18 19  4  0
 19 20  4  0
 19 33  1  0
 20 21  4  0
 20 34  1  0
 21 22  4  0
 21 35  1  0
 22 23  4  0
 22 36  1  0
M  END
$$$$
CN1C(=C(O)c2ccccc2S1(=O)=O)C(=O)Nc3ccccn3
CHcorina  02130121013D 1   1.00000    19.00000     0
CORINA evaluation copy  2.4  150  11.12.1900 (2001-3)
 36 38  0  0  0  0              1 V2000
    0.0831    1.1876    0.2155 C   0  0  0
    0.1221   -0.2699    0.0729 N   0  0  0
    1.3304   -0.9940    0.1010 C   0  0  0
    1.4438   -2.3229   -0.0229 C   0  0  0
    2.7060   -2.8124    0.0332 O   0  0  0
    0.3858   -3.3164   -0.2105 C   0  0  0
    0.6857   -4.6784   -0.3218 C   0  0  0
   -0.3323   -5.5915   -0.4976 C   0  0  0
   -1.6520   -5.1801   -0.5665 C   0  0  0
   -1.9648   -3.8316   -0.4576 C   0  0  0
   -0.9597   -2.9234   -0.2829 C   0  0  0
   -1.2693   -1.1848   -0.1274 S   0  0  0
   -1.9784   -1.0498    1.0966 O   0  0  0
   -1.7780   -0.7913   -1.3945 O   0  0  0
    2.5275   -0.2534    0.2748 C   0  0  0
    2.9346    0.4647   -0.6206 O   0  0  0
    3.2144   -0.3444    1.4307 N   0  0  0
    4.4453    0.2937    1.5613 C   0  0  0
    4.7831    1.3242    0.6905 C   0  0  0
    6.0091    1.9495    0.8314 C   0  0  0
    6.8589    1.5211    1.8425 C   0  0  0
    6.4588    0.4918    2.6712 C   0  0  0
    5.2810   -0.0824    2.5165 N   0  0  0
    1.0859    1.5590    0.4265 H   0  0  0
   -0.2823    1.6335   -0.7096 H   0  0  0
   -0.5833    1.4547    1.0356 H   0  0  0
    3.0454   -2.8150   -0.8722 H   0  0  0
    1.7111   -5.0133   -0.2705 H   0  0  0
   -0.0967   -6.6420   -0.5831 H   0  0  0
   -2.4382   -5.9076   -0.7052 H   0  0  0
   -2.9926   -3.5041   -0.5109 H   0  0  0
    2.8515   -0.8544    2.1717 H   0  0  0
    4.0978    1.6319   -0.0854 H   0  0  0
    6.2987    2.7524    0.1698 H   0  0  0
    7.8231    1.9881    1.9791 H   0  0  0
    7.1167    0.1552    3.4588 H   0  0  0
  1  2  1  0
  1 24  1  0
  1 25  1  0
  1 26  1  0
  2 12  1  0
  2  3  1  0
  3  4  2  0
  3 15  1  0
  4  5  1  0
  4  6  1  0
  5 27  1  0
  6 11  4  0
  6  7  4  0
  7  8  4  0
  7 28  1  0
  8  9  4  0
  8 29  1  0
  9 10  4  0
  9 30  1  0
 10 11  4  0
 10 31  1  0
 11 12  1  0
 12 13  2  0
 12 14  2  0
 15 16  2  0
 15 17  1  0
 17 18  1  0
 17 32  1  0
 18 23  4  0
 18 19  4  0
 19 20  4  0
 19 33  1  0
 20 21  4  0
 20 34  1  0
 21 22  4  0
 21 35  1  0
 22 23  4  0
 22 36  1  0
M  END
$$$$
