CNNCc1ccc(cc1)C(=O)NC(C)C
CHcorina  02130121023D 1   1.00000     0.00000     0
CORINA evaluation copy  2.4  150  11.12.1900 (2001-3)
 35 35  0  0  0  0              1 V2000
   -0.0178    1.4648    0.0101 C   0  0  0
    0.0021   -0.0041    0.0020 N   0  0  0
   -1.3847   -0.4408    0.0129 N   0  0  0
   -1.5877   -1.2321   -1.2080 C   0  0  0
   -3.0131   -1.7186   -1.2601 C   0  0  0
   -3.3478   -2.9330   -0.6872 C   0  0  0
   -4.6507   -3.3839   -0.7310 C   0  0  0
   -5.6324   -2.6123   -1.3550 C   0  0  0
   -5.2881   -1.3885   -1.9309 C   0  0  0
   -3.9822   -0.9467   -1.8755 C   0  0  0
   -7.0308   -3.0896   -1.4062 C   0  0  0
   -7.3277   -4.1560   -0.9041 O   0  0  0
   -7.9763   -2.3423   -2.0094 N   0  0  0
   -9.3619   -2.8152   -2.0601 C   0  0  0
  -10.3104   -1.6148   -2.0730 C   0  0  0
   -9.5716   -3.6447   -3.3285 C   0  0  0
    1.0047    1.8421    0.0024 H   0  0  0
   -0.5450    1.8259   -0.8730 H   0  0  0
   -0.5280    1.8163    0.9069 H   0  0  0
    0.3872   -0.2839   -0.8876 H   0  0  0
   -1.4824   -1.0768    0.7902 H   0  0  0
   -1.3833   -0.6122   -2.0809 H   0  0  0
   -0.9119   -2.0872   -1.2033 H   0  0  0
   -2.5872   -3.5291   -0.2050 H   0  0  0
   -4.9105   -4.3319   -0.2837 H   0  0  0
   -6.0430   -0.7869   -2.4152 H   0  0  0
   -3.7144    0.0002   -2.3207 H   0  0  0
   -7.7394   -1.4912   -2.4101 H   0  0  0
   -9.5677   -3.4315   -1.1848 H   0  0  0
  -11.3414   -1.9667   -2.1107 H   0  0  0
  -10.1610   -1.0239   -1.1694 H   0  0  0
  -10.1046   -0.9986   -2.9482 H   0  0  0
   -9.3659   -3.0284   -4.2037 H   0  0  0
   -8.8959   -4.4999   -3.3193 H   0  0  0
  -10.6026   -3.9966   -3.3662 H   0  0  0
  1  2  1  0
  1 17  1  0
  1 18  1  0
  1 19  1  0
  2  3  1  0
  2 20  1  0
  3  4  1  0
  3 21  1  0
  4  5  1  0
  4 22  1  0
  4 23  1  0
  5 10  4  0
  5  6  4  0
  6  7  4  0
  6 24  1  0
  7  8  4  0
  7 25  1  0
  8  9  4  0
  8 11  1  0
  9 10  4  0
  9 26  1  0
 10 27  1  0
 11 12  2  0
 11 13  1  0
 13 14  1  0
 13 28  1  0
 14 15  1  0
 14 16  1  0
 14 29  1  0
 15 30  1  0
 15 31  1  0
 15 32  1  0
 16 33  1  0
 16 34  1  0
 16 35  1  0
M  END
$$$$
