CCC(=C(c1ccccc1)c2cccc(OCCN(C)C)c2)c3ccccc3
CHcorina  03230118583D 1   1.00000     0.00000     0
CORINA evaluation copy  2.4  150  11.12.1900 (2001-3)
 57 59  0  0  0  0              1 V2000
    0.2874    2.7083   -0.6258 C   0  0  0
    0.2016    1.2326   -1.0208 C   0  0  0
   -1.2363    0.8655   -1.2831 C   0  0  0
   -2.1592    0.9952   -0.2990 C   0  0  0
   -3.5711    0.6348   -0.5566 C   0  0  0
   -4.2893    1.2878   -1.5594 C   0  0  0
   -5.6050    0.9468   -1.7949 C   0  0  0
   -6.2129   -0.0403   -1.0392 C   0  0  0
   -5.5066   -0.6913   -0.0438 C   0  0  0
   -4.1883   -0.3633    0.1982 C   0  0  0
   -1.7549    1.4973    1.0331 C   0  0  0
   -0.7960    0.8100    1.7792 C   0  0  0
   -0.4213    1.2807    3.0208 C   0  0  0
   -0.9930    2.4325    3.5296 C   0  0  0
   -1.9477    3.1224    2.7949 C   0  0  0
   -2.5063    4.2538    3.2997 O   0  0  0
   -1.9143    4.4700    4.5822 C   0  0  0
   -2.5027    5.7357    5.2088 C   0  0  0
   -3.9359    5.5360    5.4619 N   0  0  0
   -4.0394    4.6822    6.6528 C   0  0  0
   -4.4857    6.8467    5.8332 C   0  0  0
   -2.3263    2.6618    1.5449 C   0  0  0
   -1.6381    0.3666   -2.6069 C   0  0  0
   -2.2126   -0.9026   -2.7354 C   0  0  0
   -2.5864   -1.3630   -3.9799 C   0  0  0
   -2.3944   -0.5735   -5.1006 C   0  0  0
   -1.8264    0.6829   -4.9819 C   0  0  0
   -1.4531    1.1607   -3.7434 C   0  0  0
    1.3274    2.9738   -0.4360 H   0  0  0
   -0.1030    3.3245   -1.4357 H   0  0  0
   -0.3012    2.8778    0.2759 H   0  0  0
    0.7902    1.0630   -1.9224 H   0  0  0
    0.5920    0.6164   -0.2108 H   0  0  0
   -3.8161    2.0586   -2.1496 H   0  0  0
   -6.1620    1.4516   -2.5704 H   0  0  0
   -7.2434   -0.3034   -1.2273 H   0  0  0
   -5.9867   -1.4609    0.5425 H   0  0  0
   -3.6378   -0.8725    0.9754 H   0  0  0
   -0.3479   -0.0901    1.3848 H   0  0  0
    0.3204    0.7478    3.5972 H   0  0  0
   -0.6959    2.7964    4.5021 H   0  0  0
   -2.1213    3.6156    5.2266 H   0  0  0
   -0.8365    4.5876    4.4697 H   0  0  0
   -1.9936    5.9460    6.1493 H   0  0  0
   -2.3677    6.5752    4.5269 H   0  0  0
   -5.0900    4.5044    6.8822 H   0  0  0
   -3.5431    3.7307    6.4619 H   0  0  0
   -3.5618    5.1780    7.4979 H   0  0  0
   -5.5339    6.7357    6.1107 H   0  0  0
   -3.9268    7.2490    6.6781 H   0  0  0
   -4.4043    7.5280    4.9862 H   0  0  0
   -3.0687    3.1978    0.9722 H   0  0  0
   -2.3624   -1.5200   -1.8621 H   0  0  0
   -3.0301   -2.3425   -4.0808 H   0  0  0
   -2.6891   -0.9400   -6.0728 H   0  0  0
   -1.6795    1.2927   -5.8611 H   0  0  0
   -1.0099    2.1413   -3.6524 H   0  0  0
  1  2  1  0
  1 29  1  0
  1 30  1  0
  1 31  1  0
  2  3  1  0
  2 32  1  0
  2 33  1  0
  3  4  2  0
  3 23  1  0
  4  5  1  0
  4 11  1  0
  5 10  4  0
  5  6  4  0
  6  7  4  0
  6 34  1  0
  7  8  4  0
  7 35  1  0
  8  9  4  0
  8 36  1  0
  9 10  4  0
  9 37  1  0
 10 38  1  0
 11 22  4  0
 11 12  4  0
 12 13  4  0
 12 39  1  0
 13 14  4  0
 13 40  1  0
 14 15  4  0
 14 41  1  0
 15 16  1  0
 15 22  4  0
 16 17  1  0
 17 18  1  0
 17 42  1  0
 17 43  1  0
 18 19  1  0
 18 44  1  0
 18 45  1  0
 19 20  1  0
 19 21  1  0
 20 46  1  0
 20 47  1  0
 20 48  1  0
 21 49  1  0
 21 50  1  0
 21 51  1  0
 22 52  1  0
 23 28  4  0
 23 24  4  0
 24 25  4  0
 24 53  1  0
 25 26  4  0
 25 54  1  0
 26 27  4  0
 26 55  1  0
 27 28  4  0
 27 56  1  0
 28 57  1  0
M  END
$$$$
