COc1cccc(c1)C2(O)CCCCC2CN(C)C
CHcorina  03230118583D 1   1.00000     0.00000     0
CORINA evaluation copy  2.4  150  11.12.1900 (2001-3)
 44 45  0  0  0  0              1 V2000
   -3.2609    2.3257    1.2774 C   0  0  0
   -3.6252    1.0038    1.6797 O   0  0  0
   -3.1991    0.1636    0.7003 C   0  0  0
   -2.5426    0.6696   -0.4124 C   0  0  0
   -2.1101   -0.1865   -1.4063 C   0  0  0
   -2.3309   -1.5469   -1.2931 C   0  0  0
   -2.9851   -2.0536   -0.1857 C   0  0  0
   -3.4147   -1.2020    0.8139 C   0  0  0
   -3.2245   -3.5366   -0.0658 C   0  0  0
   -2.2562   -4.2400   -0.8465 O   0  0  0
   -3.1001   -3.9564    1.4002 C   0  0  0
   -3.3431   -5.4621    1.5219 C   0  0  0
   -4.7473   -5.7948    1.0135 C   0  0  0
   -4.8717   -5.3750   -0.4525 C   0  0  0
   -4.6287   -3.8693   -0.5742 C   0  0  0
   -5.6655   -3.1162    0.2618 C   0  0  0
   -7.0125   -3.4180   -0.2407 N   0  0  0
   -7.9547   -2.6679    0.6004 C   0  0  0
   -7.0990   -2.8413   -1.5891 C   0  0  0
   -3.5840    3.0384    2.0361 H   0  0  0
   -2.1788    2.3847    1.1607 H   0  0  0
   -3.7421    2.5622    0.3284 H   0  0  0
   -2.3703    1.7321   -0.5015 H   0  0  0
   -1.5993    0.2070   -2.2728 H   0  0  0
   -1.9919   -2.2146   -2.0713 H   0  0  0
   -3.9258   -1.5983    1.6789 H   0  0  0
   -1.3874   -4.0030   -0.4942 H   0  0  0
   -2.0997   -3.7193    1.7624 H   0  0  0
   -3.8388   -3.4199    1.9957 H   0  0  0
   -2.6045   -5.9986    0.9263 H   0  0  0
   -3.2544   -5.7612    2.5663 H   0  0  0
   -4.9204   -6.8674    1.1003 H   0  0  0
   -5.4859   -5.2582    1.6090 H   0  0  0
   -4.1330   -5.9115   -1.0480 H   0  0  0
   -5.8720   -5.6120   -0.8147 H   0  0  0
   -4.7173   -3.5702   -1.6186 H   0  0  0
   -5.5880   -3.4277    1.3034 H   0  0  0
   -5.4821   -2.0442    0.1885 H   0  0  0
   -8.9738   -2.8602    0.2649 H   0  0  0
   -7.8477   -2.9852    1.6377 H   0  0  0
   -7.7417   -1.6017    0.5228 H   0  0  0
   -8.0861   -3.0402   -2.0066 H   0  0  0
   -6.9376   -1.7647   -1.5349 H   0  0  0
   -6.3376   -3.2913   -2.2262 H   0  0  0
  1  2  1  0
  1 20  1  0
  1 21  1  0
  1 22  1  0
  2  3  1  0
  3  8  4  0
  3  4  4  0
  4  5  4  0
  4 23  1  0
  5  6  4  0
  5 24  1  0
  6  7  4  0
  6 25  1  0
  7  8  4  0
  7  9  1  0
  8 26  1  0
  9 15  1  0
  9 10  1  0
  9 11  1  0
 10 27  1  0
 11 12  1  0
 11 28  1  0
 11 29  1  0
 12 13  1  0
 12 30  1  0
 12 31  1  0
 13 14  1  0
 13 32  1  0
 13 33  1  0
 14 15  1  0
 14 34  1  0
 14 35  1  0
 15 16  1  0
 15 36  1  0
 16 17  1  0
 16 37  1  0
 16 38  1  0
 17 18  1  0
 17 19  1  0
 18 39  1  0
 18 40  1  0
 18 41  1  0
 19 42  1  0
 19 43  1  0
 19 44  1  0
M  END
$$$$
COc1cccc(c1)C2(O)CCCCC2CN(C)C
CHcorina  03230118583D 1   1.00000     5.00000     0
CORINA evaluation copy  2.4  150  11.12.1900 (2001-3)
 44 45  0  0  0  0              1 V2000
   -0.2084    1.4663   -0.8532 C   0  0  0
   -0.2229    0.0448   -0.9990 O   0  0  0
   -1.4068   -0.3899   -0.4926 C   0  0  0
   -2.3177    0.5203    0.0241 C   0  0  0
   -3.5204    0.0759    0.5378 C   0  0  0
   -3.8171   -1.2747    0.5373 C   0  0  0
   -2.9110   -2.1836    0.0234 C   0  0  0
   -1.7089   -1.7437   -0.4968 C   0  0  0
   -3.2373   -3.6549    0.0249 C   0  0  0
   -2.1527   -4.3839   -0.5534 O   0  0  0
   -3.4594   -4.1266    1.4633 C   0  0  0
   -4.6205   -3.3460    2.0824 C   0  0  0
   -5.8909   -3.5875    1.2646 C   0  0  0
   -5.6688   -3.1158   -0.1738 C   0  0  0
   -4.5076   -3.8964   -0.7929 C   0  0  0
   -4.2855   -3.4247   -2.2313 C   0  0  0
   -5.5052   -3.6566   -3.0165 N   0  0  0
   -5.2261   -3.1847   -4.3793 C   0  0  0
   -5.6820   -5.1124   -3.1018 C   0  0  0
    0.7272    1.8625   -1.2478 H   0  0  0
   -1.0456    1.8965   -1.4029 H   0  0  0
   -0.2958    1.7242    0.2022 H   0  0  0
   -2.0864    1.5752    0.0251 H   0  0  0
   -4.2296    0.7840    0.9405 H   0  0  0
   -4.7580   -1.6202    0.9394 H   0  0  0
   -1.0014   -2.4541   -0.8981 H   0  0  0
   -1.3738   -4.2045   -0.0092 H   0  0  0
   -3.6954   -5.1907    1.4644 H   0  0  0
   -2.5544   -3.9546    2.0459 H   0  0  0
   -4.7788   -3.6820    3.1072 H   0  0  0
   -4.3845   -2.2818    2.0813 H   0  0  0
   -6.1269   -4.6516    1.2657 H   0  0  0
   -6.7181   -3.0314    1.7057 H   0  0  0
   -6.5738   -3.2878   -0.7564 H   0  0  0
   -5.4327   -2.0516   -0.1749 H   0  0  0
   -4.7437   -4.9605   -0.7918 H   0  0  0
   -4.0495   -2.3606   -2.2325 H   0  0  0
   -3.4583   -3.9808   -2.6724 H   0  0  0
   -6.1064   -3.3363   -5.0039 H   0  0  0
   -4.9779   -2.1236   -4.3527 H   0  0  0
   -4.3867   -3.7439   -4.7927 H   0  0  0
   -6.5795   -5.3363   -3.6785 H   0  0  0
   -4.8152   -5.5555   -3.5921 H   0  0  0
   -5.7825   -5.5256   -2.0982 H   0  0  0
  1  2  1  0
  1 20  1  0
  1 21  1  0
  1 22  1  0
  2  3  1  0
  3  8  4  0
  3  4  4  0
  4  5  4  0
  4 23  1  0
  5  6  4  0
  5 24  1  0
  6  7  4  0
  6 25  1  0
  7  8  4  0
  7  9  1  0
  8 26  1  0
  9 15  1  0
  9 10  1  0
  9 11  1  0
 10 27  1  0
 11 12  1  0
 11 28  1  0
 11 29  1  0
 12 13  1  0
 12 30  1  0
 12 31  1  0
 13 14  1  0
 13 32  1  0
 13 33  1  0
 14 15  1  0
 14 34  1  0
 14 35  1  0
 15 16  1  0
 15 36  1  0
 16 17  1  0
 16 37  1  0
 16 38  1  0
 17 18  1  0
 17 19  1  0
 18 39  1  0
 18 40  1  0
 18 41  1  0
 19 42  1  0
 19 43  1  0
 19 44  1  0
M  END
$$$$
COc1cccc(c1)C2(O)CCCCC2CN(C)C
CHcorina  03230118583D 1   1.00000    18.00000     0
CORINA evaluation copy  2.4  150  11.12.1900 (2001-3)
 44 45  0  0  0  0              1 V2000
   -2.9289    2.2477    1.3200 C   0  0  0
   -3.3164    0.9338    1.7269 O   0  0  0
   -2.9860    0.0943    0.7105 C   0  0  0
   -2.3836    0.5938   -0.4353 C   0  0  0
   -2.0483   -0.2615   -1.4668 C   0  0  0
   -2.3126   -1.6145   -1.3582 C   0  0  0
   -2.9132   -2.1146   -0.2178 C   0  0  0
   -3.2452   -1.2640    0.8191 C   0  0  0
   -3.2002   -3.5895   -0.1031 C   0  0  0
   -2.2790   -4.3187   -0.9167 O   0  0  0
   -3.0487   -4.0264    1.3552 C   0  0  0
   -3.0784   -5.5538    1.4364 C   0  0  0
   -4.0066   -6.1048    0.3523 C   0  0  0
   -5.1585   -5.1252    0.1201 C   0  0  0
   -4.6286   -3.8692   -0.5741 C   0  0  0
   -5.5230   -2.6779   -0.2252 C   0  0  0
   -6.8898   -2.9369   -0.6971 N   0  0  0
   -7.6921   -1.7616   -0.3325 C   0  0  0
   -6.8307   -2.9689   -2.1646 C   0  0  0
   -3.1755    2.9595    2.1077 H   0  0  0
   -1.8551    2.2687    1.1344 H   0  0  0
   -3.4607    2.5170    0.4074 H   0  0  0
   -2.1773    1.6505   -0.5208 H   0  0  0
   -1.5797    0.1268   -2.3590 H   0  0  0
   -2.0497   -2.2817   -2.1658 H   0  0  0
   -3.7144   -1.6551    1.7098 H   0  0  0
   -1.3931   -4.1147   -0.5873 H   0  0  0
   -2.0999   -3.6602    1.7475 H   0  0  0
   -3.8683   -3.6153    1.9446 H   0  0  0
   -2.0722   -5.9452    1.2865 H   0  0  0
   -3.4442   -5.8585    2.4170 H   0  0  0
   -3.4468   -6.2335   -0.5741 H   0  0  0
   -4.4068   -7.0671    0.6714 H   0  0  0
   -5.9146   -5.5959   -0.5083 H   0  0  0
   -5.6013   -4.8515    1.0778 H   0  0  0
   -4.6318   -4.0218   -1.6534 H   0  0  0
   -5.5327   -2.5351    0.8554 H   0  0  0
   -5.1363   -1.7798   -0.7069 H   0  0  0
   -8.7204   -1.9068   -0.6636 H   0  0  0
   -7.6738   -1.6306    0.7494 H   0  0  0
   -7.2774   -0.8754   -0.8129 H   0  0  0
   -7.8267   -3.1593   -2.5643 H   0  0  0
   -6.4679   -2.0100   -2.5346 H   0  0  0
   -6.1535   -3.7612   -2.4837 H   0  0  0
  1  2  1  0
  1 20  1  0
  1 21  1  0
  1 22  1  0
  2  3  1  0
  3  8  4  0
  3  4  4  0
  4  5  4  0
  4 23  1  0
  5  6  4  0
  5 24  1  0
  6  7  4  0
  6 25  1  0
  7  8  4  0
  7  9  1  0
  8 26  1  0
  9 15  1  0
  9 10  1  0
  9 11  1  0
 10 27  1  0
 11 12  1  0
 11 28  1  0
 11 29  1  0
 12 13  1  0
 12 30  1  0
 12 31  1  0
 13 14  1  0
 13 32  1  0
 13 33  1  0
 14 15  1  0
 14 34  1  0
 14 35  1  0
 15 16  1  0
 15 36  1  0
 16 17  1  0
 16 37  1  0
 16 38  1  0
 17 18  1  0
 17 19  1  0
 18 39  1  0
 18 40  1  0
 18 41  1  0
 19 42  1  0
 19 43  1  0
 19 44  1  0
M  END
$$$$
