CN(C)N=Nc1nc[nH]c1C(=O)N
CHcorina  02130121013D 1   1.00000     0.00000     0
CORINA evaluation copy  2.4  150  11.12.1900 (2001-3)
 23 23  0  0  0  0              1 V2000
   -0.0178    1.4608    0.0101 C   0  0  0
    0.0021   -0.0041    0.0020 N   0  0  0
    1.2806   -0.7192   -0.0140 C   0  0  0
   -1.2016   -0.7210    0.0097 N   0  0  0
   -1.1841   -2.0108    0.0026 N   0  0  0
   -2.3585   -2.7104    0.0100 C   0  0  0
   -3.5965   -2.1894    0.0188 N   0  0  0
   -4.4798   -3.1509    0.0241 C   0  0  0
   -3.8562   -4.3433    0.0190 N   0  0  0
   -4.2822   -5.2148    0.0213 H   0  0  0
   -2.4948   -4.0960    0.0039 C   0  0  0
   -1.4197   -5.0868   -0.0068 C   0  0  0
   -0.2576   -4.7239   -0.0203 O   0  0  0
   -1.7151   -6.4018   -0.0017 N   0  0  0
    1.0048    1.8381    0.0023 H   0  0  0
   -0.5450    1.8219   -0.8730 H   0  0  0
   -0.5280    1.8123    0.9069 H   0  0  0
    2.0993    0.0003   -0.0180 H   0  0  0
    1.3553   -1.3498    0.8719 H   0  0  0
    1.3383   -1.3402   -0.9080 H   0  0  0
   -5.5506   -3.0102    0.0314 H   0  0  0
   -1.0018   -7.0591   -0.0088 H   0  0  0
   -2.6409   -6.6908    0.0091 H   0  0  0
  1  2  1  0
  1 15  1  0
  1 16  1  0
  1 17  1  0
  2  3  1  0
  2  4  1  0
  3 18  1  0
  3 19  1  0
  3 20  1  0
  4  5  2  0
  5  6  1  0
  6 11  4  0
  6  7  4  0
  7  8  4  0
  8  9  4  0
  8 21  1  0
  9 10  1  0
  9 11  4  0
 11 12  1  0
 12 13  2  0
 12 14  1  0
 14 22  1  0
 14 23  1  0
M  END
$$$$
