NC(=Nc1nc(CCSCCC(=NS(=O)(=O)N)N)cs1)N
CHcorina  02210111263D 1   1.00000     0.00000     0
CORINA evaluation copy  2.4  150  11.12.1900 (2001-3)
 38 38  0  0  0  0              1 V2000
   -2.6620    1.1833    0.9795 N   0  0  0
   -2.2915   -0.1329    0.8836 C   0  0  0
   -1.0165   -0.4589    0.8785 N   0  0  0
   -0.6493   -1.7679    0.9006 C   0  0  0
   -1.4060   -2.8576    0.8242 N   0  0  0
   -0.8707   -4.0601    0.8615 C   0  0  0
   -1.7508   -5.2802    0.7726 C   0  0  0
   -2.1761   -5.7059    2.1793 C   0  0  0
   -3.2354   -7.1745    2.0722 S   0  0  0
   -3.5773   -7.4454    3.8330 C   0  0  0
   -4.4809   -8.6694    3.9947 C   0  0  0
   -4.7649   -8.8944    5.4575 C   0  0  0
   -4.2598   -8.0997    6.3440 N   0  0  0
   -4.6776   -8.2647    7.9379 S   0  0  0
   -6.0751   -8.0146    7.9985 O   0  0  0
   -4.0340   -9.4501    8.3850 O   0  0  0
   -3.9619   -7.0235    8.7683 N   0  0  0
   -5.5581   -9.9409    5.8482 N   0  0  0
    0.4722   -4.2000    0.9795 C   0  0  0
    0.9823   -2.4868    1.0324 S   0  0  0
   -3.2490   -1.1096    0.7931 N   0  0  0
   -3.6018    1.4236    0.9832 H   0  0  0
   -1.9845    1.8742    1.0476 H   0  0  0
   -2.6357   -5.0475    0.1803 H   0  0  0
   -1.1994   -6.0921    0.2984 H   0  0  0
   -1.2912   -5.9386    2.7716 H   0  0  0
   -2.7275   -4.8939    2.6534 H   0  0  0
   -2.6400   -7.6131    4.3635 H   0  0  0
   -4.0763   -6.5684    4.2453 H   0  0  0
   -5.4182   -8.5017    3.4642 H   0  0  0
   -3.9819   -9.5464    3.5824 H   0  0  0
   -4.0882   -6.9450    9.7268 H   0  0  0
   -3.4165   -6.3751    8.2962 H   0  0  0
   -5.8004  -10.0436    6.7818 H   0  0  0
   -5.8774  -10.5791    5.1912 H   0  0  0
    1.0699   -5.0984    1.0249 H   0  0  0
   -2.9910   -2.0446    0.8078 H   0  0  0
   -4.1845   -0.8658    0.7142 H   0  0  0
  1  2  1  0
  1 22  1  0
  1 23  1  0
  2  3  2  0
  2 21  1  0
  3  4  1  0
  4 20  4  0
  4  5  4  0
  5  6  4  0
  6  7  1  0
  6 19  4  0
  7  8  1  0
  7 24  1  0
  7 25  1  0
  8  9  1  0
  8 26  1  0
  8 27  1  0
  9 10  1  0
 10 11  1  0
 10 28  1  0
 10 29  1  0
 11 12  1  0
 11 30  1  0
 11 31  1  0
 12 13  2  0
 12 18  1  0
 13 14  1  0
 14 15  2  0
 14 16  2  0
 14 17  1  0
 17 32  1  0
 17 33  1  0
 18 34  1  0
 18 35  1  0
 19 20  4  0
 19 36  1  0
 21 37  1  0
 21 38  1  0
M  END
$$$$
