Cc1ccc(C)c(OCCCC(C)(C)C(=O)O)c1
CHcorina  02130121013D 1   1.00000     0.00000     0
CORINA evaluation copy  2.4  150  11.12.1900 (2001-3)
 40 40  0  0  0  0              1 V2000
   -0.0184    1.5028    0.0103 C   0  0  0
    0.0021   -0.0041    0.0020 C   0  0  0
    0.0058   -0.6883   -1.1997 C   0  0  0
    0.0250   -2.0706   -1.2107 C   0  0  0
    0.0405   -2.7719   -0.0204 C   0  0  0
    0.0619   -4.2787   -0.0331 C   0  0  0
    0.0368   -2.0879    1.1864 C   0  0  0
    0.0521   -2.7754    2.3585 O   0  0  0
    0.0436   -1.8045    3.4070 C   0  0  0
    0.0601   -2.5162    4.7613 C   0  0  0
    0.0511   -1.4767    5.8839 C   0  0  0
    0.0676   -2.1884    7.2382 C   0  0  0
   -1.1688   -3.0814    7.3601 C   0  0  0
    1.3294   -3.0466    7.3480 C   0  0  0
    0.0586   -1.1645    8.3439 C   0  0  0
    0.0409    0.0136    8.0762 O   0  0  0
    0.0704   -1.5613    9.6261 O   0  0  0
    0.0229   -0.7004    1.1947 C   0  0  0
    1.0042    1.8801    0.0026 H   0  0  0
   -0.5455    1.8639   -0.8728 H   0  0  0
   -0.5286    1.8543    0.9071 H   0  0  0
   -0.0067   -0.1419   -2.1312 H   0  0  0
    0.0275   -2.6027   -2.1505 H   0  0  0
    1.0946   -4.6273   -0.0409 H   0  0  0
   -0.4425   -4.6568    0.8562 H   0  0  0
   -0.4509   -4.6419   -0.9237 H   0  0  0
    0.9244   -1.1683    3.3201 H   0  0  0
   -0.8553   -1.1931    3.3288 H   0  0  0
   -0.8207   -3.1524    4.8481 H   0  0  0
    0.9591   -3.1277    4.8395 H   0  0  0
    0.9319   -0.8405    5.7970 H   0  0  0
   -0.8479   -0.8653    5.8056 H   0  0  0
   -2.0678   -2.4700    7.2818 H   0  0  0
   -1.1624   -3.8220    6.5603 H   0  0  0
   -1.1571   -3.5885    8.3249 H   0  0  0
    2.2102   -2.4104    7.2611 H   0  0  0
    1.3412   -3.5537    8.3128 H   0  0  0
    1.3359   -3.7872    6.5482 H   0  0  0
    0.0647   -0.9043   10.3356 H   0  0  0
    0.0203   -0.1656    2.1329 H   0  0  0
  1  2  1  0
  1 19  1  0
  1 20  1  0
  1 21  1  0
  2 18  4  0
  2  3  4  0
  3  4  4  0
  3 22  1  0
  4  5  4  0
  4 23  1  0
  5  6  1  0
  5  7  4  0
  6 24  1  0
  6 25  1  0
  6 26  1  0
  7  8  1  0
  7 18  4  0
  8  9  1  0
  9 10  1  0
  9 27  1  0
  9 28  1  0
 10 11  1  0
 10 29  1  0
 10 30  1  0
 11 12  1  0
 11 31  1  0
 11 32  1  0
 12 13  1  0
 12 14  1  0
 12 15  1  0
 13 33  1  0
 13 34  1  0
 13 35  1  0
 14 36  1  0
 14 37  1  0
 14 38  1  0
 15 16  2  0
 15 17  1  0
 17 39  1  0
 18 40  1  0
M  END
$$$$
