Cc1cnc(cn1)C(=O)NCCc2ccc(cc2)S(=O)(=O)NC(=O)NC3CCCCC3
CHcorina  02210111253D 1   1.00000     0.00000     0
CORINA evaluation copy  2.4  150  11.12.1900 (2001-3)
 58 60  0  0  0  0              1 V2000
   -0.0184    1.5028    0.0103 C   0  0  0
    0.0021   -0.0041    0.0020 C   0  0  0
    0.0058   -0.6893   -1.2048 C   0  0  0
    0.0236   -2.0068   -1.2170 N   0  0  0
    0.0386   -2.6811   -0.0703 C   0  0  0
    0.0353   -1.9898    1.1402 C   0  0  0
    0.0219   -0.6688    1.1435 N   0  0  0
    0.0582   -4.1624   -0.0798 C   0  0  0
    0.0718   -4.7766    0.9687 O   0  0  0
    0.0609   -4.8289   -1.2512 N   0  0  0
    0.0802   -6.2937   -1.2606 C   0  0  0
    0.0793   -6.7946   -2.7063 C   0  0  0
    0.0992   -8.3014   -2.7159 C   0  0  0
    1.3056   -8.9768   -2.7209 C   0  0  0
    1.3239  -10.3587   -2.7297 C   0  0  0
    0.1358  -11.0658   -2.7331 C   0  0  0
   -1.0702  -10.3907   -2.7272 C   0  0  0
   -1.0885   -9.0083   -2.7140 C   0  0  0
    0.1591  -12.8276   -2.7455 S   0  0  0
   -1.0989  -13.2267   -3.2722 O   0  0  0
    1.4259  -13.1932   -3.2753 O   0  0  0
    0.1678  -13.3337   -1.1687 N   0  0  0
   -0.8466  -12.9975   -0.3475 C   0  0  0
   -1.7680  -12.3225   -0.7643 O   0  0  0
   -0.8396  -13.4094    0.9358 N   0  0  0
   -1.9421  -13.0438    1.8285 C   0  0  0
   -3.0319  -14.1155    1.7583 C   0  0  0
   -4.1834  -13.7337    2.6906 C   0  0  0
   -3.6639  -13.6278    4.1258 C   0  0  0
   -2.5742  -12.5562    4.1960 C   0  0  0
   -1.4227  -12.9380    3.2637 C   0  0  0
    1.0042    1.8801    0.0026 H   0  0  0
   -0.5455    1.8639   -0.8728 H   0  0  0
   -0.5286    1.8543    0.9071 H   0  0  0
   -0.0064   -0.1417   -2.1356 H   0  0  0
    0.0473   -2.5331    2.0735 H   0  0  0
    0.0500   -4.3386   -2.0882 H   0  0  0
    0.9777   -6.6484   -0.7538 H   0  0  0
   -0.8021   -6.6720   -0.7444 H   0  0  0
   -0.8181   -6.4398   -3.2131 H   0  0  0
    0.9617   -6.4162   -3.2224 H   0  0  0
    2.2337   -8.4244   -2.7182 H   0  0  0
    2.2663  -10.8863   -2.7343 H   0  0  0
   -1.9983  -10.9430   -2.7302 H   0  0  0
   -2.0308   -8.4807   -2.7094 H   0  0  0
    0.9029  -13.8722   -0.8363 H   0  0  0
   -0.1044  -13.9479    1.2683 H   0  0  0
   -2.3562  -12.0838    1.5202 H   0  0  0
   -3.4019  -14.1910    0.7358 H   0  0  0
   -2.6178  -15.0755    2.0666 H   0  0  0
   -4.5974  -12.7737    2.3823 H   0  0  0
   -4.9598  -14.4972    2.6406 H   0  0  0
   -4.4843  -13.3559    4.7900 H   0  0  0
   -3.2498  -14.5878    4.4341 H   0  0  0
   -2.9883  -11.5962    3.8877 H   0  0  0
   -2.2041  -12.4807    5.2185 H   0  0  0
   -1.0086  -13.8980    3.5720 H   0  0  0
   -0.6463  -12.1745    3.3137 H   0  0  0
  1  2  1  0
  1 32  1  0
  1 33  1  0
  1 34  1  0
  2  7  4  0
  2  3  4  0
  3  4  4  0
  3 35  1  0
  4  5  4  0
  5  6  4  0
  5  8  1  0
  6  7  4  0
  6 36  1  0
  8  9  2  0
  8 10  1  0
 10 11  1  0
 10 37  1  0
 11 12  1  0
 11 38  1  0
 11 39  1  0
 12 13  1  0
 12 40  1  0
 12 41  1  0
 13 18  4  0
 13 14  4  0
 14 15  4  0
 14 42  1  0
 15 16  4  0
 15 43  1  0
 16 17  4  0
 16 19  1  0
 17 18  4  0
 17 44  1  0
 18 45  1  0
 19 20  2  0
 19 21  2  0
 19 22  1  0
 22 23  1  0
 22 46  1  0
 23 24  2  0
 23 25  1  0
 25 26  1  0
 25 47  1  0
 26 31  1  0
 26 27  1  0
 26 48  1  0
 27 28  1  0
 27 49  1  0
 27 50  1  0
 28 29  1  0
 28 51  1  0
 28 52  1  0
 29 30  1  0
 29 53  1  0
 29 54  1  0
 30 31  1  0
 30 55  1  0
 30 56  1  0
 31 57  1  0
 31 58  1  0
M  END
$$$$
Cc1cnc(cn1)C(=O)NCCc2ccc(cc2)S(=O)(=O)NC(=O)NC3CCCCC3
CHcorina  02210111253D 1   1.00000     2.00000     0
CORINA evaluation copy  2.4  150  11.12.1900 (2001-3)
 58 60  0  0  0  0              1 V2000
   -0.0184    1.5028    0.0103 C   0  0  0
    0.0021   -0.0041    0.0020 C   0  0  0
    0.0058   -0.6893   -1.2048 C   0  0  0
    0.0236   -2.0068   -1.2170 N   0  0  0
    0.0386   -2.6811   -0.0703 C   0  0  0
    0.0353   -1.9898    1.1402 C   0  0  0
    0.0219   -0.6688    1.1435 N   0  0  0
    0.0582   -4.1624   -0.0798 C   0  0  0
    0.0718   -4.7766    0.9687 O   0  0  0
    0.0609   -4.8289   -1.2512 N   0  0  0
    0.0802   -6.2937   -1.2606 C   0  0  0
    0.0793   -6.7946   -2.7063 C   0  0  0
    0.0992   -8.3014   -2.7159 C   0  0  0
    1.3056   -8.9768   -2.7209 C   0  0  0
    1.3239  -10.3587   -2.7297 C   0  0  0
    0.1358  -11.0658   -2.7331 C   0  0  0
   -1.0702  -10.3907   -2.7272 C   0  0  0
   -1.0885   -9.0083   -2.7140 C   0  0  0
    0.1591  -12.8276   -2.7455 S   0  0  0
   -1.0989  -13.2267   -3.2722 O   0  0  0
    1.4259  -13.1932   -3.2753 O   0  0  0
    0.1678  -13.3337   -1.1687 N   0  0  0
   -0.8466  -12.9975   -0.3475 C   0  0  0
   -1.7680  -12.3225   -0.7643 O   0  0  0
   -0.8396  -13.4094    0.9358 N   0  0  0
   -1.9421  -13.0438    1.8285 C   0  0  0
   -3.0319  -14.1155    1.7583 C   0  0  0
   -2.4506  -15.4630    2.1910 C   0  0  0
   -1.9311  -15.3572    3.6262 C   0  0  0
   -0.8414  -14.2855    3.6963 C   0  0  0
   -1.4227  -12.9380    3.2637 C   0  0  0
    1.0042    1.8801    0.0026 H   0  0  0
   -0.5455    1.8639   -0.8728 H   0  0  0
   -0.5286    1.8543    0.9071 H   0  0  0
   -0.0064   -0.1417   -2.1356 H   0  0  0
    0.0473   -2.5331    2.0735 H   0  0  0
    0.0500   -4.3386   -2.0882 H   0  0  0
    0.9777   -6.6484   -0.7538 H   0  0  0
   -0.8021   -6.6720   -0.7444 H   0  0  0
   -0.8181   -6.4398   -3.2131 H   0  0  0
    0.9617   -6.4162   -3.2224 H   0  0  0
    2.2337   -8.4244   -2.7182 H   0  0  0
    2.2663  -10.8863   -2.7343 H   0  0  0
   -1.9983  -10.9430   -2.7302 H   0  0  0
   -2.0308   -8.4807   -2.7094 H   0  0  0
    0.9029  -13.8722   -0.8363 H   0  0  0
   -0.1044  -13.9479    1.2683 H   0  0  0
   -2.3562  -12.0838    1.5202 H   0  0  0
   -3.8522  -13.8436    2.4225 H   0  0  0
   -3.4020  -14.1909    0.7358 H   0  0  0
   -3.2269  -16.2265    2.1409 H   0  0  0
   -1.6302  -15.7349    1.5268 H   0  0  0
   -2.7515  -15.0852    4.2904 H   0  0  0
   -1.5170  -16.3172    3.9344 H   0  0  0
   -0.4712  -14.2101    4.7188 H   0  0  0
   -0.0210  -14.5574    3.0321 H   0  0  0
   -0.6463  -12.1745    3.3137 H   0  0  0
   -2.2430  -12.6661    3.9279 H   0  0  0
  1  2  1  0
  1 32  1  0
  1 33  1  0
  1 34  1  0
  2  7  4  0
  2  3  4  0
  3  4  4  0
  3 35  1  0
  4  5  4  0
  5  6  4  0
  5  8  1  0
  6  7  4  0
  6 36  1  0
  8  9  2  0
  8 10  1  0
 10 11  1  0
 10 37  1  0
 11 12  1  0
 11 38  1  0
 11 39  1  0
 12 13  1  0
 12 40  1  0
 12 41  1  0
 13 18  4  0
 13 14  4  0
 14 15  4  0
 14 42  1  0
 15 16  4  0
 15 43  1  0
 16 17  4  0
 16 19  1  0
 17 18  4  0
 17 44  1  0
 18 45  1  0
 19 20  2  0
 19 21  2  0
 19 22  1  0
 22 23  1  0
 22 46  1  0
 23 24  2  0
 23 25  1  0
 25 26  1  0
 25 47  1  0
 26 31  1  0
 26 27  1  0
 26 48  1  0
 27 28  1  0
 27 49  1  0
 27 50  1  0
 28 29  1  0
 28 51  1  0
 28 52  1  0
 29 30  1  0
 29 53  1  0
 29 54  1  0
 30 31  1  0
 30 55  1  0
 30 56  1  0
 31 57  1  0
 31 58  1  0
M  END
$$$$
Cc1cnc(cn1)C(=O)NCCc2ccc(cc2)S(=O)(=O)NC(=O)NC3CCCCC3
CHcorina  02210111253D 1   1.00000    23.00000     0
CORINA evaluation copy  2.4  150  11.12.1900 (2001-3)
 58 60  0  0  0  0              1 V2000
   -0.0184    1.5028    0.0103 C   0  0  0
    0.0021   -0.0041    0.0020 C   0  0  0
    0.0058   -0.6893   -1.2048 C   0  0  0
    0.0236   -2.0068   -1.2170 N   0  0  0
    0.0386   -2.6811   -0.0703 C   0  0  0
    0.0353   -1.9898    1.1402 C   0  0  0
    0.0219   -0.6688    1.1435 N   0  0  0
    0.0582   -4.1624   -0.0798 C   0  0  0
    0.0718   -4.7766    0.9687 O   0  0  0
    0.0609   -4.8289   -1.2512 N   0  0  0
    0.0802   -6.2937   -1.2606 C   0  0  0
    0.0793   -6.7946   -2.7063 C   0  0  0
    0.0992   -8.3014   -2.7159 C   0  0  0
    1.3056   -8.9768   -2.7209 C   0  0  0
    1.3239  -10.3587   -2.7297 C   0  0  0
    0.1358  -11.0658   -2.7331 C   0  0  0
   -1.0702  -10.3907   -2.7272 C   0  0  0
   -1.0885   -9.0083   -2.7140 C   0  0  0
    0.1591  -12.8276   -2.7455 S   0  0  0
   -1.0989  -13.2267   -3.2722 O   0  0  0
    1.4259  -13.1932   -3.2753 O   0  0  0
    0.1678  -13.3337   -1.1687 N   0  0  0
   -0.8466  -12.9975   -0.3475 C   0  0  0
   -1.7680  -12.3225   -0.7643 O   0  0  0
   -0.8396  -13.4094    0.9358 N   0  0  0
   -1.9421  -13.0438    1.8285 C   0  0  0
   -3.0320  -14.1151    1.7577 C   0  0  0
   -3.8119  -14.1378    3.0737 C   0  0  0
   -3.8817  -12.7226    3.6504 C   0  0  0
   -2.4971  -12.3060    4.1503 C   0  0  0
   -1.4226  -12.9380    3.2635 C   0  0  0
    1.0042    1.8801    0.0026 H   0  0  0
   -0.5455    1.8639   -0.8728 H   0  0  0
   -0.5286    1.8543    0.9071 H   0  0  0
   -0.0064   -0.1417   -2.1356 H   0  0  0
    0.0473   -2.5331    2.0735 H   0  0  0
    0.0500   -4.3386   -2.0882 H   0  0  0
    0.9777   -6.6484   -0.7538 H   0  0  0
   -0.8021   -6.6720   -0.7444 H   0  0  0
   -0.8181   -6.4398   -3.2131 H   0  0  0
    0.9617   -6.4162   -3.2224 H   0  0  0
    2.2337   -8.4244   -2.7182 H   0  0  0
    2.2663  -10.8863   -2.7343 H   0  0  0
   -1.9983  -10.9430   -2.7302 H   0  0  0
   -2.0308   -8.4807   -2.7094 H   0  0  0
    0.9029  -13.8722   -0.8363 H   0  0  0
   -0.1044  -13.9479    1.2683 H   0  0  0
   -2.3560  -12.0837    1.5203 H   0  0  0
   -3.7118  -13.8880    0.9365 H   0  0  0
   -2.5732  -15.0896    1.5905 H   0  0  0
   -4.8215  -14.5060    2.8913 H   0  0  0
   -3.3084  -14.7947    3.7830 H   0  0  0
   -4.2115  -12.0305    2.8756 H   0  0  0
   -4.5886  -12.7028    4.4799 H   0  0  0
   -2.4082  -11.2204    4.1110 H   0  0  0
   -2.3651  -12.6443    5.1781 H   0  0  0
   -1.1824  -13.9334    3.6372 H   0  0  0
   -0.5265  -12.3177    3.2806 H   0  0  0
  1  2  1  0
  1 32  1  0
  1 33  1  0
  1 34  1  0
  2  7  4  0
  2  3  4  0
  3  4  4  0
  3 35  1  0
  4  5  4  0
  5  6  4  0
  5  8  1  0
  6  7  4  0
  6 36  1  0
  8  9  2  0
  8 10  1  0
 10 11  1  0
 10 37  1  0
 11 12  1  0
 11 38  1  0
 11 39  1  0
 12 13  1  0
 12 40  1  0
 12 41  1  0
 13 18  4  0
 13 14  4  0
 14 15  4  0
 14 42  1  0
 15 16  4  0
 15 43  1  0
 16 17  4  0
 16 19  1  0
 17 18  4  0
 17 44  1  0
 18 45  1  0
 19 20  2  0
 19 21  2  0
 19 22  1  0
 22 23  1  0
 22 46  1  0
 23 24  2  0
 23 25  1  0
 25 26  1  0
 25 47  1  0
 26 31  1  0
 26 27  1  0
 26 48  1  0
 27 28  1  0
 27 49  1  0
 27 50  1  0
 28 29  1  0
 28 51  1  0
 28 52  1  0
 29 30  1  0
 29 53  1  0
 29 54  1  0
 30 31  1  0
 30 55  1  0
 30 56  1  0
 31 57  1  0
 31 58  1  0
M  END
$$$$
