COc1ccc2n(C(=O)c3ccc(Cl)cc3)c(C)c(CC(=O)O)c2c1
CHcorina  02210111263D 1   1.00000     0.00000     0
CORINA evaluation copy  2.4  150  11.12.1900 (2001-3)
 41 43  0  0  0  0              1 V2000
   -0.0173    1.4247    0.0098 C   0  0  0
    0.0021   -0.0041    0.0020 O   0  0  0
   -1.2941   -0.4148    0.0121 C   0  0  0
   -2.3196    0.5263    0.0212 C   0  0  0
   -3.6381    0.1262    0.0321 C   0  0  0
   -3.9535   -1.2269    0.0340 C   0  0  0
   -5.1496   -1.9234    0.0440 N   0  0  0
   -6.3747   -1.3617    0.0547 C   0  0  0
   -6.9563   -1.1922    1.1081 O   0  0  0
   -7.0103   -0.9523   -1.2137 C   0  0  0
   -6.3946   -1.2448   -2.4331 C   0  0  0
   -6.9932   -0.8604   -3.6139 C   0  0  0
   -8.2027   -0.1848   -3.5929 C   0  0  0
   -8.9502    0.2959   -5.0842 Cl  0  0  0
   -8.8181    0.1081   -2.3872 C   0  0  0
   -8.2322   -0.2762   -1.1995 C   0  0  0
   -4.8986   -3.2740    0.0410 C   0  0  0
   -5.9534   -4.3503    0.0491 C   0  0  0
   -3.5762   -3.4923    0.0293 C   0  0  0
   -2.8911   -4.8346    0.0220 C   0  0  0
   -2.6756   -5.2809   -1.4012 C   0  0  0
   -3.0409   -4.5808   -2.3157 O   0  0  0
   -2.0778   -6.4561   -1.6528 O   0  0  0
   -2.9207   -2.1799    0.0243 C   0  0  0
   -1.5884   -1.7646    0.0077 C   0  0  0
    1.0053    1.8020    0.0021 H   0  0  0
   -0.5445    1.7858   -0.8733 H   0  0  0
   -0.5275    1.7763    0.9066 H   0  0  0
   -2.0798    1.5794    0.0202 H   0  0  0
   -4.4264    0.8645    0.0394 H   0  0  0
   -5.4515   -1.7707   -2.4507 H   0  0  0
   -6.5183   -1.0859   -4.5573 H   0  0  0
   -9.7606    0.6352   -2.3773 H   0  0  0
   -8.7130   -0.0473   -0.2599 H   0  0  0
   -6.2166   -4.6088   -0.9766 H   0  0  0
   -5.5676   -5.2333    0.5587 H   0  0  0
   -6.8388   -3.9874    0.5710 H   0  0  0
   -1.9286   -4.7539    0.5272 H   0  0  0
   -3.5139   -5.5632    0.5409 H   0  0  0
   -1.9395   -6.7424   -2.5660 H   0  0  0
   -0.7922   -2.4941   -0.0056 H   0  0  0
  1  2  1  0
  1 26  1  0
  1 27  1  0
  1 28  1  0
  2  3  1  0
  3 25  4  0
  3  4  4  0
  4  5  4  0
  4 29  1  0
  5  6  4  0
  5 30  1  0
  6 24  4  0
  6  7  4  0
  7  8  1  0
  7 17  4  0
  8  9  2  0
  8 10  1  0
 10 16  4  0
 10 11  4  0
 11 12  4  0
 11 31  1  0
 12 13  4  0
 12 32  1  0
 13 14  1  0
 13 15  4  0
 15 16  4  0
 15 33  1  0
 16 34  1  0
 17 18  1  0
 17 19  4  0
 18 35  1  0
 18 36  1  0
 18 37  1  0
 19 20  1  0
 19 24  4  0
 20 21  1  0
 20 38  1  0
 20 39  1  0
 21 22  2  0
 21 23  1  0
 23 40  1  0
 24 25  4  0
 25 41  1  0
M  END
$$$$
