COCCc1ccc(OCC(O)CNC(C)C)cc1
CHcorina  02210111253D 1   1.00000     0.00000     0
CORINA evaluation copy  2.4  150  11.12.1900 (2001-3)
 44 44  0  0  0  0              1 V2000
   -0.0173    1.4248    0.0099 C   0  0  0
    0.0021   -0.0041    0.0020 O   0  0  0
   -1.3601   -0.4357    0.0127 C   0  0  0
   -1.4107   -1.9648    0.0050 C   0  0  0
   -2.8473   -2.4200    0.0162 C   0  0  0
   -3.4956   -2.6294    1.2197 C   0  0  0
   -4.8122   -3.0466    1.2327 C   0  0  0
   -5.4846   -3.2551    0.0370 C   0  0  0
   -6.7802   -3.6651    0.0471 O   0  0  0
   -7.1851   -3.7884   -1.3177 C   0  0  0
   -8.6428   -4.2495   -1.3776 C   0  0  0
   -9.4730   -3.2907   -0.7192 O   0  0  0
   -9.0763   -4.3815   -2.8389 C   0  0  0
  -10.4759   -4.8242   -2.8964 N   0  0  0
  -10.8270   -4.9303   -4.3189 C   0  0  0
  -11.8843   -6.0207   -4.5033 C   0  0  0
  -11.3841   -3.5918   -4.8079 C   0  0  0
   -4.8322   -3.0439   -1.1688 C   0  0  0
   -3.5165   -2.6220   -1.1764 C   0  0  0
    1.0053    1.8021    0.0021 H   0  0  0
   -0.5445    1.7859   -0.8732 H   0  0  0
   -0.5275    1.7763    0.9067 H   0  0  0
   -1.8532   -0.0604    0.9095 H   0  0  0
   -1.8702   -0.0508   -0.8704 H   0  0  0
   -0.9177   -2.3401   -0.8918 H   0  0  0
   -0.9007   -2.3497    0.8881 H   0  0  0
   -2.9718   -2.4669    2.1501 H   0  0  0
   -5.3179   -3.2107    2.1728 H   0  0  0
   -7.0888   -2.8227   -1.8140 H   0  0  0
   -6.5518   -4.5197   -1.8200 H   0  0  0
   -8.7391   -5.2152   -0.8814 H   0  0  0
   -9.3585   -2.4529   -1.1882 H   0  0  0
   -8.9800   -3.4158   -3.3352 H   0  0  0
   -8.4430   -5.1128   -3.3412 H   0  0  0
  -10.4994   -5.7606   -2.5213 H   0  0  0
   -9.9374   -5.1857   -4.8946 H   0  0  0
  -12.1448   -6.0994   -5.5587 H   0  0  0
  -11.4874   -6.9742   -4.1549 H   0  0  0
  -12.7739   -5.7653   -3.9275 H   0  0  0
  -12.2737   -3.3364   -4.2321 H   0  0  0
  -10.6308   -2.8150   -4.6765 H   0  0  0
  -11.6446   -3.6705   -5.8633 H   0  0  0
   -5.3533   -3.2055   -2.1008 H   0  0  0
   -3.0082   -2.4570   -2.1150 H   0  0  0
  1  2  1  0
  1 20  1  0
  1 21  1  0
  1 22  1  0
  2  3  1  0
  3  4  1  0
  3 23  1  0
  3 24  1  0
  4  5  1  0
  4 25  1  0
  4 26  1  0
  5 19  4  0
  5  6  4  0
  6  7  4  0
  6 27  1  0
  7  8  4  0
  7 28  1  0
  8  9  1  0
  8 18  4  0
  9 10  1  0
 10 11  1  0
 10 29  1  0
 10 30  1  0
 11 12  1  0
 11 13  1  0
 11 31  1  0
 12 32  1  0
 13 14  1  0
 13 33  1  0
 13 34  1  0
 14 15  1  0
 14 35  1  0
 15 16  1  0
 15 17  1  0
 15 36  1  0
 16 37  1  0
 16 38  1  0
 16 39  1  0
 17 40  1  0
 17 41  1  0
 17 42  1  0
 18 19  4  0
 18 43  1  0
 19 44  1  0
M  END
$$$$
