CNCC(O)c1cccc(O)c1
CHcorina  02210111263D 1   1.00000     0.00000     0
CORINA evaluation copy  2.4  150  11.12.1900 (2001-3)
 25 25  0  0  0  0              1 V2000
   -0.0178    1.4648    0.0101 C   0  0  0
    0.0021   -0.0041    0.0020 N   0  0  0
   -1.3990   -0.4453    0.0130 C   0  0  0
   -1.4523   -1.9744    0.0053 C   0  0  0
   -0.7845   -2.4801    1.1631 O   0  0  0
   -2.8897   -2.4270    0.0166 C   0  0  0
   -3.5389   -2.6355    1.2197 C   0  0  0
   -4.8575   -3.0503    1.2334 C   0  0  0
   -5.5302   -3.2576    0.0445 C   0  0  0
   -4.8812   -3.0493   -1.1636 C   0  0  0
   -5.5406   -3.2525   -2.3344 O   0  0  0
   -3.5592   -2.6279   -1.1747 C   0  0  0
    1.0047    1.8421    0.0024 H   0  0  0
   -0.5450    1.8259   -0.8730 H   0  0  0
   -0.5280    1.8163    0.9069 H   0  0  0
    0.3872   -0.2839   -0.8876 H   0  0  0
   -1.8914   -0.0691    0.9098 H   0  0  0
   -1.9084   -0.0596   -0.8701 H   0  0  0
   -0.9599   -2.3505   -0.8914 H   0  0  0
   -1.2504   -2.1243    1.9322 H   0  0  0
   -3.0147   -2.4742    2.1501 H   0  0  0
   -5.3623   -3.2127    2.1743 H   0  0  0
   -6.5602   -3.5820    0.0558 H   0  0  0
   -5.9540   -2.4113   -2.5720 H   0  0  0
   -3.0519   -2.4646   -2.1140 H   0  0  0
  1  2  1  0
  1 13  1  0
  1 14  1  0
  1 15  1  0
  2  3  1  0
  2 16  1  0
  3  4  1  0
  3 17  1  0
  3 18  1  0
  4  5  1  0
  4  6  1  0
  4 19  1  0
  5 20  1  0
  6 12  4  0
  6  7  4  0
  7  8  4  0
  7 21  1  0
  8  9  4  0
  8 22  1  0
  9 10  4  0
  9 23  1  0
 10 11  1  0
 10 12  4  0
 11 24  1  0
 12 25  1  0
M  END
$$$$
