CCCC(=O)Nc1ccc(OCC(O)NC(C)C)c(c1)C(=O)C
CHcorina  02210111253D 1   1.00000     0.00000     0
CORINA evaluation copy  2.4  150  11.12.1900 (2001-3)
 49 49  0  0  0  0              1 V2000
   -0.0847    1.4845   -0.8143 C   0  0  0
   -0.1944   -0.0259   -1.0326 C   0  0  0
   -1.4379   -0.5558   -0.3158 C   0  0  0
   -1.5459   -2.0435   -0.5308 C   0  0  0
   -0.7106   -2.6229   -1.1924 O   0  0  0
   -2.5708   -2.7302    0.0119 N   0  0  0
   -2.6076   -4.1276   -0.0857 C   0  0  0
   -1.4206   -4.8544   -0.0890 C   0  0  0
   -1.4451   -6.2307   -0.1851 C   0  0  0
   -2.6551   -6.9018   -0.2789 C   0  0  0
   -2.6771   -8.2550   -0.3729 O   0  0  0
   -1.3170   -8.6928   -0.3495 C   0  0  0
   -1.2706  -10.2186   -0.4527 C   0  0  0
   -1.8832  -10.6322   -1.6756 O   0  0  0
    0.1276  -10.6686   -0.4286 N   0  0  0
    0.1310  -12.0032    0.1854 C   0  0  0
    1.2874  -12.8251   -0.3873 C   0  0  0
    0.3026  -11.8674    1.6997 C   0  0  0
   -3.8574   -6.1765   -0.2758 C   0  0  0
   -3.8232   -4.7808   -0.1727 C   0  0  0
   -5.1430   -6.8781   -0.3750 C   0  0  0
   -5.1688   -8.0878   -0.4601 O   0  0  0
   -6.4308   -6.0954   -0.3713 C   0  0  0
    0.8011    1.8620   -1.3250 H   0  0  0
   -0.9719    1.9749   -1.2150 H   0  0  0
   -0.0053    1.6925    0.2527 H   0  0  0
   -0.2739   -0.2339   -2.0997 H   0  0  0
    0.6927   -0.5163   -0.6319 H   0  0  0
   -1.3584   -0.3478    0.7513 H   0  0  0
   -2.3250   -0.0654   -0.7165 H   0  0  0
   -3.2829   -2.2571    0.4702 H   0  0  0
   -0.4748   -4.3382   -0.0163 H   0  0  0
   -0.5193   -6.7869   -0.1877 H   0  0  0
   -0.7800   -8.2552   -1.1910 H   0  0  0
   -0.8498   -8.3773    0.5834 H   0  0  0
   -1.8076  -10.6562    0.3889 H   0  0  0
   -1.3789  -10.2242   -2.3928 H   0  0  0
    0.4093  -10.7910   -1.3897 H   0  0  0
   -0.8127  -12.5045   -0.0298 H   0  0  0
    1.2899  -13.8153    0.0683 H   0  0  0
    1.1651  -12.9218   -1.4661 H   0  0  0
    2.2310  -12.3238   -0.1721 H   0  0  0
    1.2463  -11.3660    1.9148 H   0  0  0
   -0.5212  -11.2818    2.1077 H   0  0  0
    0.3052  -12.8576    2.1553 H   0  0  0
   -4.7433   -4.2153   -0.1692 H   0  0  0
   -7.2735   -6.7820   -0.4521 H   0  0  0
   -6.5101   -5.5306    0.5576 H   0  0  0
   -6.4403   -5.4074   -1.2168 H   0  0  0
  1  2  1  0
  1 24  1  0
  1 25  1  0
  1 26  1  0
  2  3  1  0
  2 27  1  0
  2 28  1  0
  3  4  1  0
  3 29  1  0
  3 30  1  0
  4  5  2  0
  4  6  1  0
  6  7  1  0
  6 31  1  0
  7 20  4  0
  7  8  4  0
  8  9  4  0
  8 32  1  0
  9 10  4  0
  9 33  1  0
 10 11  1  0
 10 19  4  0
 11 12  1  0
 12 13  1  0
 12 34  1  0
 12 35  1  0
 13 14  1  0
 13 15  1  0
 13 36  1  0
 14 37  1  0
 15 16  1  0
 15 38  1  0
 16 17  1  0
 16 18  1  0
 16 39  1  0
 17 40  1  0
 17 41  1  0
 17 42  1  0
 18 43  1  0
 18 44  1  0
 18 45  1  0
 19 20  4  0
 19 21  1  0
 20 46  1  0
 21 22  2  0
 21 23  1  0
 23 47  1  0
 23 48  1  0
 23 49  1  0
M  END
$$$$
