CCOC(=O)C(CCc1ccccc1)NC2CCc3ccccc3N(CC(=O)O)C2=O
CHcorina  02210111263D 1   1.00000     0.00000     0
CORINA evaluation copy  2.4  150  11.12.1900 (2001-3)
 59 61  0  0  0  0              1 V2000
   -0.0187    1.5258    0.0104 C   0  0  0
    0.0021   -0.0041    0.0020 C   0  0  0
   -1.3601   -0.5067    0.0123 O   0  0  0
   -1.5875   -1.8295    0.0074 C   0  0  0
   -0.6586   -2.6021   -0.0056 O   0  0  0
   -3.0013   -2.3512    0.0181 C   0  0  0
   -3.7413   -1.8443   -1.2214 C   0  0  0
   -5.1767   -2.3739   -1.2106 C   0  0  0
   -5.9055   -1.8747   -2.4315 C   0  0  0
   -6.5883   -0.6734   -2.3859 C   0  0  0
   -7.2568   -0.2155   -3.5056 C   0  0  0
   -7.2423   -0.9586   -4.6714 C   0  0  0
   -6.5590   -2.1592   -4.7172 C   0  0  0
   -5.8867   -2.6151   -3.5984 C   0  0  0
   -2.9814   -3.8200    0.0100 N   0  0  0
   -2.9622   -4.2496    1.4146 C   0  0  0
   -3.6880   -5.5890    1.5421 C   0  0  0
   -3.3304   -6.2387    2.8813 C   0  0  0
   -3.3533   -5.2120    3.9814 C   0  0  0
   -4.4151   -5.1584    4.8633 C   0  0  0
   -4.4226   -4.2198    5.8788 C   0  0  0
   -3.3696   -3.3338    6.0163 C   0  0  0
   -2.3067   -3.3799    5.1345 C   0  0  0
   -2.3014   -4.3172    4.1118 C   0  0  0
   -1.2468   -4.3559    3.1892 N   0  0  0
    0.1448   -4.3739    3.6466 C   0  0  0
    0.5944   -5.8003    3.8315 C   0  0  0
   -0.1692   -6.7087    3.6045 O   0  0  0
    1.8433   -6.0616    4.2485 O   0  0  0
   -1.5370   -4.3753    1.8752 C   0  0  0
   -0.6462   -4.4946    1.0607 O   0  0  0
    1.0039    1.9031    0.0027 H   0  0  0
   -0.5459    1.8868   -0.8726 H   0  0  0
   -0.5289    1.8773    0.9072 H   0  0  0
    0.5123   -0.3556   -0.8948 H   0  0  0
    0.5293   -0.3651    0.8851 H   0  0  0
   -3.5115   -1.9996    0.9149 H   0  0  0
   -3.7561   -0.7544   -1.2154 H   0  0  0
   -3.2311   -2.1958   -2.1182 H   0  0  0
   -5.1619   -3.4638   -1.2166 H   0  0  0
   -5.6869   -2.0224   -0.3138 H   0  0  0
   -6.5996   -0.0929   -1.4753 H   0  0  0
   -7.7907    0.7226   -3.4698 H   0  0  0
   -7.7652   -0.6012   -5.5462 H   0  0  0
   -6.5480   -2.7398   -5.6278 H   0  0  0
   -5.3528   -3.5532   -3.6342 H   0  0  0
   -3.8654   -4.1199   -0.3729 H   0  0  0
   -3.4730   -3.5051    2.0253 H   0  0  0
   -4.7645   -5.4249    1.4940 H   0  0  0
   -3.3840   -6.2459    0.7271 H   0  0  0
   -4.0521   -7.0242    3.1055 H   0  0  0
   -2.3339   -6.6755    2.8158 H   0  0  0
   -5.2391   -5.8489    4.7595 H   0  0  0
   -5.2540   -4.1782    6.5669 H   0  0  0
   -3.3781   -2.6050    6.8133 H   0  0  0
   -1.4836   -2.6888    5.2408 H   0  0  0
    0.7775   -3.8868    2.9046 H   0  0  0
    0.2223   -3.8426    4.5952 H   0  0  0
    2.1318   -6.9769    4.3671 H   0  0  0
  1  2  1  0
  1 32  1  0
  1 33  1  0
  1 34  1  0
  2  3  1  0
  2 35  1  0
  2 36  1  0
  3  4  1  0
  4  5  2  0
  4  6  1  0
  6  7  1  0
  6 15  1  0
  6 37  1  0
  7  8  1  0
  7 38  1  0
  7 39  1  0
  8  9  1  0
  8 40  1  0
  8 41  1  0
  9 14  4  0
  9 10  4  0
 10 11  4  0
 10 42  1  0
 11 12  4  0
 11 43  1  0
 12 13  4  0
 12 44  1  0
 13 14  4  0
 13 45  1  0
 14 46  1  0
 15 16  1  0
 15 47  1  0
 16 30  1  0
 16 17  1  0
 16 48  1  0
 17 18  1  0
 17 49  1  0
 17 50  1  0
 18 19  1  0
 18 51  1  0
 18 52  1  0
 19 24  4  0
 19 20  4  0
 20 21  4  0
 20 53  1  0
 21 22  4  0
 21 54  1  0
 22 23  4  0
 22 55  1  0
 23 24  4  0
 23 56  1  0
 24 25  1  0
 25 26  1  0
 25 30  1  0
 26 27  1  0
 26 57  1  0
 26 58  1  0
 27 28  2  0
 27 29  1  0
 29 59  1  0
 30 31  2  0
M  END
$$$$
CCOC(=O)C(CCc1ccccc1)NC2CCc3ccccc3N(CC(=O)O)C2=O
CHcorina  02210111263D 1   1.00000     1.00000     0
CORINA evaluation copy  2.4  150  11.12.1900 (2001-3)
 59 61  0  0  0  0              1 V2000
   -0.5368    1.5764    1.7249 C   0  0  0
   -0.3661    0.2321    1.0145 C   0  0  0
   -1.6641   -0.3984    0.8534 O   0  0  0
   -1.7591   -1.5947    0.2521 C   0  0  0
   -0.7645   -2.1469   -0.1551 O   0  0  0
   -3.1063   -2.2491    0.0849 C   0  0  0
   -3.7319   -1.7981   -1.2365 C   0  0  0
   -5.0996   -2.4625   -1.4063 C   0  0  0
   -5.7158   -2.0182   -2.7078 C   0  0  0
   -6.5117   -0.8883   -2.7457 C   0  0  0
   -7.0768   -0.4809   -3.9394 C   0  0  0
   -6.8459   -1.2029   -5.0956 C   0  0  0
   -6.0495   -2.3319   -5.0579 C   0  0  0
   -5.4807   -2.7371   -3.8647 C   0  0  0
   -2.9438   -3.7091    0.0766 N   0  0  0
   -2.8395   -4.1302    1.4801 C   0  0  0
   -4.0572   -4.9800    1.8432 C   0  0  0
   -3.8898   -6.3869    1.2638 C   0  0  0
   -3.3614   -6.3118   -0.1433 C   0  0  0
   -4.2062   -6.5148   -1.2173 C   0  0  0
   -3.7101   -6.4560   -2.5068 C   0  0  0
   -2.3695   -6.1964   -2.7263 C   0  0  0
   -1.5207   -5.9882   -1.6560 C   0  0  0
   -2.0189   -6.0401   -0.3624 C   0  0  0
   -1.1781   -5.7988    0.7329 N   0  0  0
    0.1051   -6.4948    0.8563 C   0  0  0
    1.2035   -5.6257    0.3001 C   0  0  0
    0.9396   -4.5419   -0.1643 O   0  0  0
    2.4749   -6.0556    0.3207 O   0  0  0
   -1.5720   -4.9157    1.6689 C   0  0  0
   -0.9026   -4.7533    2.6672 O   0  0  0
    0.4376    2.0497    1.8458 H   0  0  0
   -1.1831    2.2221    1.1303 H   0  0  0
   -0.9865    1.4151    2.7046 H   0  0  0
    0.0836    0.3934    0.0348 H   0  0  0
    0.2802   -0.4135    1.6091 H   0  0  0
   -3.7555   -1.9605    0.9115 H   0  0  0
   -3.8524   -0.7148   -1.2304 H   0  0  0
   -3.0826   -2.0867   -2.0631 H   0  0  0
   -4.9791   -3.5458   -1.4124 H   0  0  0
   -5.7489   -2.1738   -0.5797 H   0  0  0
   -6.6921   -0.3243   -1.8426 H   0  0  0
   -7.6991    0.4013   -3.9689 H   0  0  0
   -7.2881   -0.8849   -6.0283 H   0  0  0
   -5.8694   -2.8961   -5.9610 H   0  0  0
   -4.8584   -3.6193   -3.8352 H   0  0  0
   -3.8059   -4.0947   -0.2785 H   0  0  0
   -2.8138   -3.2475    2.1191 H   0  0  0
   -4.1465   -5.0421    2.9278 H   0  0  0
   -4.9560   -4.5218    1.4304 H   0  0  0
   -3.1909   -6.9505    1.8818 H   0  0  0
   -4.8555   -6.8925    1.2598 H   0  0  0
   -5.2533   -6.7197   -1.0499 H   0  0  0
   -4.3719   -6.6138   -3.3455 H   0  0  0
   -1.9857   -6.1566   -3.7350 H   0  0  0
   -0.4734   -5.7863   -1.8260 H   0  0  0
    0.3048   -6.7049    1.9070 H   0  0  0
    0.0656   -7.4311    0.2997 H   0  0  0
    3.1797   -5.4980   -0.0362 H   0  0  0
  1  2  1  0
  1 32  1  0
  1 33  1  0
  1 34  1  0
  2  3  1  0
  2 35  1  0
  2 36  1  0
  3  4  1  0
  4  5  2  0
  4  6  1  0
  6  7  1  0
  6 15  1  0
  6 37  1  0
  7  8  1  0
  7 38  1  0
  7 39  1  0
  8  9  1  0
  8 40  1  0
  8 41  1  0
  9 14  4  0
  9 10  4  0
 10 11  4  0
 10 42  1  0
 11 12  4  0
 11 43  1  0
 12 13  4  0
 12 44  1  0
 13 14  4  0
 13 45  1  0
 14 46  1  0
 15 16  1  0
 15 47  1  0
 16 30  1  0
 16 17  1  0
 16 48  1  0
 17 18  1  0
 17 49  1  0
 17 50  1  0
 18 19  1  0
 18 51  1  0
 18 52  1  0
 19 24  4  0
 19 20  4  0
 20 21  4  0
 20 53  1  0
 21 22  4  0
 21 54  1  0
 22 23  4  0
 22 55  1  0
 23 24  4  0
 23 56  1  0
 24 25  1  0
 25 26  1  0
 25 30  1  0
 26 27  1  0
 26 57  1  0
 26 58  1  0
 27 28  2  0
 27 29  1  0
 29 59  1  0
 30 31  2  0
M  END
$$$$
CCOC(=O)C(CCc1ccccc1)NC2CCc3ccccc3N(CC(=O)O)C2=O
CHcorina  02210111263D 1   1.00000    14.00000     0
CORINA evaluation copy  2.4  150  11.12.1900 (2001-3)
 59 61  0  0  0  0              1 V2000
   -1.1165    2.2378   -0.3611 C   0  0  0
   -1.2560    0.8084   -0.8886 C   0  0  0
   -2.1833    0.0711   -0.0490 O   0  0  0
   -2.4619   -1.2130   -0.3237 C   0  0  0
   -1.9411   -1.7552   -1.2695 O   0  0  0
   -3.4243   -1.9782    0.5476 C   0  0  0
   -4.8596   -1.6594    0.1243 C   0  0  0
   -5.8367   -2.4363    1.0089 C   0  0  0
   -7.2505   -2.1224    0.5920 C   0  0  0
   -7.9224   -1.0616    1.1706 C   0  0  0
   -9.2190   -0.7737    0.7882 C   0  0  0
   -9.8439   -1.5461   -0.1733 C   0  0  0
   -9.1718   -2.6059   -0.7524 C   0  0  0
   -7.8733   -2.8914   -0.3729 C   0  0  0
   -3.1789   -3.4190    0.4003 N   0  0  0
   -3.1921   -3.9901    1.7536 C   0  0  0
   -3.6965   -5.4114    1.6822 C   0  0  0
   -4.0656   -5.9805    3.0166 C   0  0  0
   -2.9241   -6.4221    3.8732 C   0  0  0
   -3.1603   -7.5549    4.6532 C   0  0  0
   -2.1910   -8.0731    5.4807 C   0  0  0
   -0.9520   -7.4611    5.5429 C   0  0  0
   -0.7095   -6.3436    4.7824 C   0  0  0
   -1.6946   -5.8026    3.9381 C   0  0  0
   -1.3196   -4.6617    3.2669 N   0  0  0
   -0.0257   -4.1558    3.7319 C   0  0  0
    1.0840   -4.8774    3.0116 C   0  0  0
    0.8211   -5.7271    2.1937 O   0  0  0
    2.3645   -4.5763    3.2786 O   0  0  0
   -1.8209   -3.9164    2.3233 C   0  0  0
   -1.0882   -3.0691    1.8582 O   0  0  0
   -0.4204    2.7913   -0.9913 H   0  0  0
   -2.0900    2.7278   -0.3776 H   0  0  0
   -0.7396    2.2126    0.6614 H   0  0  0
   -1.6328    0.8336   -1.9111 H   0  0  0
   -0.2825    0.3183   -0.8721 H   0  0  0
   -3.2800   -1.6897    1.5888 H   0  0  0
   -5.0418   -0.5903    0.2337 H   0  0  0
   -5.0039   -1.9479   -0.9169 H   0  0  0
   -5.6546   -3.5054    0.8996 H   0  0  0
   -5.6924   -2.1478    2.0501 H   0  0  0
   -7.4343   -0.4583    1.9216 H   0  0  0
   -9.7442    0.0545    1.2407 H   0  0  0
  -10.8573   -1.3215   -0.4716 H   0  0  0
   -9.6601   -3.2095   -1.5032 H   0  0  0
   -7.3482   -3.7195   -0.8254 H   0  0  0
   -3.9776   -3.8012   -0.0836 H   0  0  0
   -3.8676   -3.4057    2.3784 H   0  0  0
   -4.5741   -5.4384    1.0362 H   0  0  0
   -2.9206   -6.0354    1.2389 H   0  0  0
   -4.6306   -5.2262    3.5643 H   0  0  0
   -4.7197   -6.8369    2.8526 H   0  0  0
   -4.1263   -8.0356    4.6065 H   0  0  0
   -2.3958   -8.9500    6.0770 H   0  0  0
   -0.1804   -7.8596    6.1849 H   0  0  0
    0.2597   -5.8700    4.8341 H   0  0  0
    0.0420   -3.0876    3.5261 H   0  0  0
    0.0666   -4.3258    4.8046 H   0  0  0
    3.0766   -5.0393    2.8164 H   0  0  0
  1  2  1  0
  1 32  1  0
  1 33  1  0
  1 34  1  0
  2  3  1  0
  2 35  1  0
  2 36  1  0
  3  4  1  0
  4  5  2  0
  4  6  1  0
  6  7  1  0
  6 15  1  0
  6 37  1  0
  7  8  1  0
  7 38  1  0
  7 39  1  0
  8  9  1  0
  8 40  1  0
  8 41  1  0
  9 14  4  0
  9 10  4  0
 10 11  4  0
 10 42  1  0
 11 12  4  0
 11 43  1  0
 12 13  4  0
 12 44  1  0
 13 14  4  0
 13 45  1  0
 14 46  1  0
 15 16  1  0
 15 47  1  0
 16 30  1  0
 16 17  1  0
 16 48  1  0
 17 18  1  0
 17 49  1  0
 17 50  1  0
 18 19  1  0
 18 51  1  0
 18 52  1  0
 19 24  4  0
 19 20  4  0
 20 21  4  0
 20 53  1  0
 21 22  4  0
 21 54  1  0
 22 23  4  0
 22 55  1  0
 23 24  4  0
 23 56  1  0
 24 25  1  0
 25 26  1  0
 25 30  1  0
 26 27  1  0
 26 57  1  0
 26 58  1  0
 27 28  2  0
 27 29  1  0
 29 59  1  0
 30 31  2  0
M  END
$$$$
