CN(CC=CC#CC(C)(C)C)Cc1cccc2ccccc12
CHcorina  03230118583D 1   1.00000     0.00000     0
CORINA evaluation copy  2.4  150  11.12.1900 (2001-3)
 47 48  0  0  0  0              1 V2000
   -0.2010    1.6360   -0.3685 C   0  0  0
   -0.0526    0.1996   -0.0988 N   0  0  0
   -1.4051   -0.3312    0.1178 C   0  0  0
   -1.9806    0.2597    1.3790 C   0  0  0
   -3.0993    0.9748    1.3273 C   0  0  0
   -3.6462    1.5363    2.5257 C   0  0  0
   -4.0946    1.9967    3.5082 C   0  0  0
   -4.6568    2.5739    4.7401 C   0  0  0
   -5.9358    3.3438    4.4051 C   0  0  0
   -4.9812    1.4511    5.7275 C   0  0  0
   -3.6376    3.5267    5.3681 C   0  0  0
    0.4480   -0.4128   -1.3366 C   0  0  0
    1.9132   -0.0983   -1.4959 C   0  0  0
    2.3191    0.8271   -2.4080 C   0  0  0
    3.6692    1.1314   -2.5690 C   0  0  0
    4.6216    0.5119   -1.8192 C   0  0  0
    4.2409   -0.4488   -0.8673 C   0  0  0
    5.1953   -1.1089   -0.0744 C   0  0  0
    4.7893   -2.0337    0.8378 C   0  0  0
    3.4388   -2.3382    0.9987 C   0  0  0
    2.4866   -1.7197    0.2485 C   0  0  0
    2.8669   -0.7543   -0.6995 C   0  0  0
    0.7693    2.0590   -0.6283 H   0  0  0
   -0.8940    1.7803   -1.1974 H   0  0  0
   -0.5886    2.1343    0.5201 H   0  0  0
   -2.0388   -0.0677   -0.7290 H   0  0  0
   -1.3587   -1.4161    0.2131 H   0  0  0
   -1.4839    0.1019    2.3249 H   0  0  0
   -3.5961    1.1326    0.3814 H   0  0  0
   -6.3521    3.7712    5.3173 H   0  0  0
   -5.7047    4.1437    3.7016 H   0  0  0
   -6.6618    2.6650    3.9577 H   0  0  0
   -5.7072    0.7723    5.2801 H   0  0  0
   -4.0700    0.9026    5.9662 H   0  0  0
   -5.3975    1.8785    6.6398 H   0  0  0
   -3.4065    4.3266    4.6647 H   0  0  0
   -4.0539    3.9541    6.2804 H   0  0  0
   -2.7264    2.9782    5.6068 H   0  0  0
    0.3115   -1.4932   -1.2886 H   0  0  0
   -0.1038   -0.0144   -2.1881 H   0  0  0
    1.5837    1.3326   -3.0163 H   0  0  0
    3.9646    1.8695   -3.3000 H   0  0  0
    5.6645    0.7575   -1.9554 H   0  0  0
    6.2453   -0.8837   -0.1886 H   0  0  0
    5.5247   -2.5395    1.4458 H   0  0  0
    3.1435   -3.0765    1.7296 H   0  0  0
    1.4439   -1.9662    0.3840 H   0  0  0
  1  2  1  0
  1 23  1  0
  1 24  1  0
  1 25  1  0
  2  3  1  0
  2 12  1  0
  3  4  1  0
  3 26  1  0
  3 27  1  0
  4  5  2  0
  4 28  1  0
  5  6  1  0
  5 29  1  0
  6  7  3  0
  7  8  1  0
  8  9  1  0
  8 10  1  0
  8 11  1  0
  9 30  1  0
  9 31  1  0
  9 32  1  0
 10 33  1  0
 10 34  1  0
 10 35  1  0
 11 36  1  0
 11 37  1  0
 11 38  1  0
 12 13  1  0
 12 39  1  0
 12 40  1  0
 13 22  4  0
 13 14  4  0
 14 15  4  0
 14 41  1  0
 15 16  4  0
 15 42  1  0
 16 17  4  0
 16 43  1  0
 17 22  4  0
 17 18  4  0
 18 19  4  0
 18 44  1  0
 19 20  4  0
 19 45  1  0
 20 21  4  0
 20 46  1  0
 21 22  4  0
 21 47  1  0
M  END
$$$$
