CC(C)(C)NCC(O)Oc1cccc2CCCC(=O)c12
CHcorina  02210111253D 1   1.00000     0.00000     0
CORINA evaluation copy  2.4  150  11.12.1900 (2001-3)
 43 44  0  0  0  0              1 V2000
   -0.0462    1.5094    0.5731 C   0  0  0
   -0.0268   -0.0199    0.5305 C   0  0  0
    0.8863   -0.4868   -0.6050 C   0  0  0
    0.4980   -0.5606    1.8621 C   0  0  0
   -1.3886   -0.5207    0.3011 N   0  0  0
   -1.2998   -1.9867    0.2712 C   0  0  0
   -2.6912   -2.5772    0.0345 C   0  0  0
   -3.2029   -2.1054   -1.2136 O   0  0  0
   -2.6048   -4.0033    0.0054 O   0  0  0
   -3.8701   -4.4752    0.1281 C   0  0  0
   -4.9451   -3.5982    0.1273 C   0  0  0
   -6.2306   -4.0857    0.2535 C   0  0  0
   -6.4595   -5.4453    0.3841 C   0  0  0
   -5.4049   -6.3367    0.3893 C   0  0  0
   -5.6888   -7.8059    0.5443 C   0  0  0
   -4.5442   -8.6511   -0.0079 C   0  0  0
   -3.2289   -8.2228    0.6561 C   0  0  0
   -2.9629   -6.7878    0.2507 C   0  0  0
   -1.8514   -6.4214   -0.0678 O   0  0  0
   -4.1006   -5.8541    0.2509 C   0  0  0
    0.9643    1.8810    0.7433 H   0  0  0
   -0.4200    1.8946   -0.3755 H   0  0  0
   -0.6967    1.8421    1.3820 H   0  0  0
    0.5125   -0.1016   -1.5536 H   0  0  0
    1.8968   -0.1152   -0.4348 H   0  0  0
    0.9002   -1.5763   -0.6354 H   0  0  0
   -0.1525   -0.2280    2.6709 H   0  0  0
    0.5118   -1.6501    1.8316 H   0  0  0
    1.5085   -0.1890    2.0322 H   0  0  0
   -1.9278   -0.2795    1.1191 H   0  0  0
   -0.6328   -2.2939   -0.5343 H   0  0  0
   -0.9095   -2.3465    1.2232 H   0  0  0
   -3.3582   -2.2699    0.8400 H   0  0  0
   -2.5850   -2.3980   -1.8975 H   0  0  0
   -4.7767   -2.5361    0.0285 H   0  0  0
   -7.0653   -3.4004    0.2508 H   0  0  0
   -7.4708   -5.8112    0.4829 H   0  0  0
   -5.8235   -8.0340    1.6016 H   0  0  0
   -6.6052   -8.0512    0.0075 H   0  0  0
   -4.7333   -9.7032    0.2052 H   0  0  0
   -4.4717   -8.5054   -1.0857 H   0  0  0
   -3.3219   -8.2904    1.7400 H   0  0  0
   -2.4153   -8.8617    0.3126 H   0  0  0
  1  2  1  0
  1 21  1  0
  1 22  1  0
  1 23  1  0
  2  3  1  0
  2  4  1  0
  2  5  1  0
  3 24  1  0
  3 25  1  0
  3 26  1  0
  4 27  1  0
  4 28  1  0
  4 29  1  0
  5  6  1  0
  5 30  1  0
  6  7  1  0
  6 31  1  0
  6 32  1  0
  7  8  1  0
  7  9  1  0
  7 33  1  0
  8 34  1  0
  9 10  1  0
 10 20  4  0
 10 11  4  0
 11 12  4  0
 11 35  1  0
 12 13  4  0
 12 36  1  0
 13 14  4  0
 13 37  1  0
 14 20  4  0
 14 15  1  0
 15 16  1  0
 15 38  1  0
 15 39  1  0
 16 17  1  0
 16 40  1  0
 16 41  1  0
 17 18  1  0
 17 42  1  0
 17 43  1  0
 18 19  2  0
 18 20  1  0
M  END
$$$$
CC(C)(C)NCC(O)Oc1cccc2CCCC(=O)c12
CHcorina  02210111253D 1   1.00000     0.00000     0
CORINA evaluation copy  2.4  150  11.12.1900 (2001-3)
 43 44  0  0  0  0              1 V2000
   -0.0348    1.5353    0.3545 C   0  0  0
   -0.0141    0.0075    0.4325 C   0  0  0
    0.8764   -0.5480   -0.6808 C   0  0  0
    0.5383   -0.4264    1.7917 C   0  0  0
   -1.3796   -0.5096    0.2712 N   0  0  0
   -1.2894   -1.9734    0.3555 C   0  0  0
   -2.6845   -2.5805    0.1946 C   0  0  0
   -3.2220   -2.2088   -1.0762 O   0  0  0
   -2.5968   -4.0044    0.2767 O   0  0  0
   -3.8677   -4.4768    0.2634 C   0  0  0
   -4.9397   -3.5968    0.2947 C   0  0  0
   -6.2310   -4.0848    0.2791 C   0  0  0
   -6.4690   -5.4483    0.2305 C   0  0  0
   -5.4177   -6.3430    0.1977 C   0  0  0
   -5.7122   -7.8168    0.1348 C   0  0  0
   -4.5332   -8.6384    0.6492 C   0  0  0
   -3.2658   -8.2483   -0.1226 C   0  0  0
   -2.9722   -6.7962    0.1927 C   0  0  0
   -1.8413   -6.4189    0.4168 O   0  0  0
   -4.1067   -5.8588    0.2119 C   0  0  0
    0.9784    1.9190    0.4742 H   0  0  0
   -0.4283    1.8444   -0.6139 H   0  0  0
   -0.6692    1.9311    1.1476 H   0  0  0
    0.4829   -0.2389   -1.6491 H   0  0  0
    1.8896   -0.1643   -0.5611 H   0  0  0
    0.8912   -1.6365   -0.6252 H   0  0  0
   -0.0961   -0.0306    2.5848 H   0  0  0
    0.5531   -1.5148    1.8473 H   0  0  0
    1.5515   -0.0427    1.9114 H   0  0  0
   -1.9024   -0.2043    1.0783 H   0  0  0
   -0.6385   -2.3436   -0.4366 H   0  0  0
   -0.8794   -2.2569    1.3249 H   0  0  0
   -3.3354   -2.2103    0.9867 H   0  0  0
   -2.6177   -2.5547   -1.7473 H   0  0  0
   -4.7643   -2.5318    0.3317 H   0  0  0
   -7.0633   -3.3970    0.3053 H   0  0  0
   -7.4848   -5.8147    0.2185 H   0  0  0
   -6.5901   -8.0318    0.7441 H   0  0  0
   -5.9181   -8.0960   -0.8985 H   0  0  0
   -4.3877   -8.4403    1.7111 H   0  0  0
   -4.7370   -9.6989    0.5015 H   0  0  0
   -2.4311   -8.8728    0.1956 H   0  0  0
   -3.4319   -8.3688   -1.1931 H   0  0  0
  1  2  1  0
  1 21  1  0
  1 22  1  0
  1 23  1  0
  2  3  1  0
  2  4  1  0
  2  5  1  0
  3 24  1  0
  3 25  1  0
  3 26  1  0
  4 27  1  0
  4 28  1  0
  4 29  1  0
  5  6  1  0
  5 30  1  0
  6  7  1  0
  6 31  1  0
  6 32  1  0
  7  8  1  0
  7  9  1  0
  7 33  1  0
  8 34  1  0
  9 10  1  0
 10 20  4  0
 10 11  4  0
 11 12  4  0
 11 35  1  0
 12 13  4  0
 12 36  1  0
 13 14  4  0
 13 37  1  0
 14 20  4  0
 14 15  1  0
 15 16  1  0
 15 38  1  0
 15 39  1  0
 16 17  1  0
 16 40  1  0
 16 41  1  0
 17 18  1  0
 17 42  1  0
 17 43  1  0
 18 19  2  0
 18 20  1  0
M  END
$$$$
CC(C)(C)NCC(O)Oc1cccc2CCCC(=O)c12
CHcorina  02210111253D 1   1.00000    28.00000     0
CORINA evaluation copy  2.4  150  11.12.1900 (2001-3)
 43 44  0  0  0  0              1 V2000
   -0.1695    1.5022    1.0140 C   0  0  0
   -0.1438   -0.0268    0.9647 C   0  0  0
    0.9398   -0.4873   -0.0124 C   0  0  0
    0.1601   -0.5770    2.3596 C   0  0  0
   -1.4512   -0.5243    0.5161 N   0  0  0
   -1.3590   -1.9902    0.4910 C   0  0  0
   -2.6945   -2.5773    0.0299 C   0  0  0
   -2.9988   -2.0966   -1.2810 O   0  0  0
   -2.6048   -4.0033    0.0054 O   0  0  0
   -3.8723   -4.4739   -0.0981 C   0  0  0
   -4.9398   -3.5992   -0.2764 C   0  0  0
   -6.2274   -4.0867   -0.3788 C   0  0  0
   -6.4823   -5.4503   -0.3018 C   0  0  0
   -5.4448   -6.3264   -0.1232 C   0  0  0
   -5.6371   -7.8126   -0.0018 C   0  0  0
   -4.6354   -8.5680   -0.8590 C   0  0  0
   -3.1974   -8.1103   -0.6976 C   0  0  0
   -3.0815   -6.8610    0.1406 C   0  0  0
   -2.1650   -6.7044    0.9196 O   0  0  0
   -4.1275   -5.8411   -0.0338 C   0  0  0
    0.8006    1.8714    1.3468 H   0  0  0
   -0.3860    1.8942    0.0202 H   0  0  0
   -0.9415    1.8304    1.7101 H   0  0  0
    0.7233   -0.0953   -1.0062 H   0  0  0
    1.9098   -0.1182    0.3204 H   0  0  0
    0.9581   -1.5766   -0.0475 H   0  0  0
   -0.6119   -0.2489    3.0557 H   0  0  0
    0.1784   -1.6663    2.3245 H   0  0  0
    1.1302   -0.2078    2.6924 H   0  0  0
   -2.1148   -0.2878    1.2385 H   0  0  0
   -0.5714   -2.2930   -0.1990 H   0  0  0
   -1.1268   -2.3568    1.4909 H   0  0  0
   -3.4821   -2.2745    0.7198 H   0  0  0
   -2.2792   -2.3855   -1.8587 H   0  0  0
   -4.7606   -2.5357   -0.3345 H   0  0  0
   -7.0477   -3.3987   -0.5204 H   0  0  0
   -7.4946   -5.8180   -0.3822 H   0  0  0
   -5.5079   -8.1055    1.0401 H   0  0  0
   -6.6467   -8.0694   -0.3223 H   0  0  0
   -4.6918   -9.6264   -0.6046 H   0  0  0
   -4.9194   -8.4524   -1.9050 H   0  0  0
   -2.6240   -8.9075   -0.2244 H   0  0  0
   -2.7763   -7.9143   -1.6837 H   0  0  0
  1  2  1  0
  1 21  1  0
  1 22  1  0
  1 23  1  0
  2  3  1  0
  2  4  1  0
  2  5  1  0
  3 24  1  0
  3 25  1  0
  3 26  1  0
  4 27  1  0
  4 28  1  0
  4 29  1  0
  5  6  1  0
  5 30  1  0
  6  7  1  0
  6 31  1  0
  6 32  1  0
  7  8  1  0
  7  9  1  0
  7 33  1  0
  8 34  1  0
  9 10  1  0
 10 20  4  0
 10 11  4  0
 11 12  4  0
 11 35  1  0
 12 13  4  0
 12 36  1  0
 13 14  4  0
 13 37  1  0
 14 20  4  0
 14 15  1  0
 15 16  1  0
 15 38  1  0
 15 39  1  0
 16 17  1  0
 16 40  1  0
 16 41  1  0
 17 18  1  0
 17 42  1  0
 17 43  1  0
 18 19  2  0
 18 20  1  0
M  END
$$$$
