OC(=O)c1cn(C2CC2)c3cc(N4CCNCC4)c(F)cc3c1=O
CHcorina  02210111263D 1   1.00000     0.00000     0
CORINA evaluation copy  2.4  150  11.12.1900 (2001-3)
 42 45  0  0  0  0              1 V2000
   -0.0164    1.3439   -0.0183 O   0  0  0
    0.0019   -0.0041   -0.0172 C   0  0  0
    1.0628   -0.5976   -0.0310 O   0  0  0
   -1.2605   -0.7561    0.0006 C   0  0  0
   -2.4709   -0.0938    0.0106 C   0  0  0
   -3.6407   -0.7462    0.0269 N   0  0  0
   -4.8799    0.0353    0.0362 C   0  0  0
   -4.7716    1.5275    0.3564 C   0  0  0
   -5.0698    1.0716   -1.0733 C   0  0  0
   -3.7278   -2.1225    0.0349 C   0  0  0
   -4.9677   -2.7507    0.0513 C   0  0  0
   -5.0389   -4.1341    0.0588 C   0  0  0
   -6.2822   -4.7617    0.0752 N   0  0  0
   -7.2873   -3.7027    0.2284 C   0  0  0
   -8.6746   -4.3282    0.3775 C   0  0  0
   -8.7212   -5.1401    1.5998 N   0  0  0
   -7.7161   -6.1991    1.4467 C   0  0  0
   -6.3288   -5.5735    1.2975 C   0  0  0
   -3.8733   -4.9052    0.0495 C   0  0  0
   -3.9589   -6.2534    0.0565 F   0  0  0
   -2.6480   -4.3020    0.0328 C   0  0  0
   -2.5604   -2.9074    0.0260 C   0  0  0
   -1.2542   -2.2284    0.0019 C   0  0  0
   -0.2111   -2.8589   -0.0129 O   0  0  0
    0.8143    1.8387   -0.0300 H   0  0  0
   -2.4753    0.9862    0.0055 H   0  0  0
   -5.7659   -0.4925    0.3890 H   0  0  0
   -5.5865    1.9817    0.9201 H   0  0  0
   -3.7784    1.9277    0.5602 H   0  0  0
   -4.2729    1.1719   -1.8101 H   0  0  0
   -6.0809    1.2258   -1.4502 H   0  0  0
   -5.8730   -2.1618    0.0586 H   0  0  0
   -7.0588   -3.1111    1.1149 H   0  0  0
   -7.2724   -3.0585   -0.6508 H   0  0  0
   -9.4240   -3.5389    0.4374 H   0  0  0
   -8.8824   -4.9602   -0.4859 H   0  0  0
   -9.6219   -5.5947    1.6117 H   0  0  0
   -7.7310   -6.8433    2.3258 H   0  0  0
   -7.9445   -6.7906    0.5601 H   0  0  0
   -5.5794   -6.3628    1.2376 H   0  0  0
   -6.1210   -4.9415    2.1610 H   0  0  0
   -1.7495   -4.9011    0.0257 H   0  0  0
  1  2  1  0
  1 25  1  0
  2  3  2  0
  2  4  1  0
  4 23  4  0
  4  5  4  0
  5  6  4  0
  5 26  1  0
  6  7  1  0
  6 10  4  0
  7  9  1  0
  7  8  1  0
  7 27  1  0
  8  9  1  0
  8 28  1  0
  8 29  1  0
  9 30  1  0
  9 31  1  0
 10 22  4  0
 10 11  4  0
 11 12  4  0
 11 32  1  0
 12 13  1  0
 12 19  4  0
 13 18  1  0
 13 14  1  0
 14 15  1  0
 14 33  1  0
 14 34  1  0
 15 16  1  0
 15 35  1  0
 15 36  1  0
 16 17  1  0
 16 37  1  0
 17 18  1  0
 17 38  1  0
 17 39  1  0
 18 40  1  0
 18 41  1  0
 19 20  1  0
 19 21  4  0
 21 22  4  0
 21 42  1  0
 22 23  4  0
 23 24  2  0
M  END
$$$$
OC(=O)c1cn(C2CC2)c3cc(N4CCNCC4)c(F)cc3c1=O
CHcorina  02210111263D 1   1.00000     6.00000     0
CORINA evaluation copy  2.4  150  11.12.1900 (2001-3)
 42 45  0  0  0  0              1 V2000
    0.0300    1.2554    0.7211 O   0  0  0
    0.0268   -0.0513    0.3896 C   0  0  0
    1.0701   -0.6110    0.1136 O   0  0  0
   -1.2378   -0.7992    0.3617 C   0  0  0
   -2.4291   -0.1736    0.6675 C   0  0  0
   -3.6003   -0.8235    0.6524 N   0  0  0
   -4.8183   -0.0825    0.9897 C   0  0  0
   -4.6614    1.3792    1.4136 C   0  0  0
   -5.2481    1.0391    0.0421 C   0  0  0
   -3.7080   -2.1606    0.3322 C   0  0  0
   -4.9485   -2.7878    0.3309 C   0  0  0
   -5.0406   -4.1315    0.0068 C   0  0  0
   -6.2843   -4.7582    0.0060 N   0  0  0
   -6.1166   -6.0295    0.7208 C   0  0  0
   -5.4755   -5.7717    2.0849 C   0  0  0
   -6.3680   -4.9389    2.9003 N   0  0  0
   -6.5358   -3.6676    2.1856 C   0  0  0
   -7.1769   -3.9253    0.8215 C   0  0  0
   -3.8955   -4.8632   -0.3200 C   0  0  0
   -4.0014   -6.1728   -0.6343 F   0  0  0
   -2.6700   -4.2603   -0.3234 C   0  0  0
   -2.5614   -2.9058    0.0023 C   0  0  0
   -1.2550   -2.2266    0.0013 C   0  0  0
   -0.2301   -2.8221   -0.2827 O   0  0  0
    0.8622    1.7475    0.7394 H   0  0  0
   -2.4168    0.8745    0.9278 H   0  0  0
   -5.6048   -0.6645    1.4702 H   0  0  0
   -5.3446    1.7591    2.1732 H   0  0  0
   -3.6519    1.7895    1.4415 H   0  0  0
   -4.6247    1.2258   -0.8323 H   0  0  0
   -6.3174    1.1953   -0.1006 H   0  0  0
   -5.8380   -2.2292    0.5823 H   0  0  0
   -7.0906   -6.4984    0.8604 H   0  0  0
   -5.4760   -6.6915    0.1381 H   0  0  0
   -5.3037   -6.7220    2.5904 H   0  0  0
   -4.5244   -5.2574    1.9474 H   0  0  0
   -5.8704   -4.7289    3.7526 H   0  0  0
   -7.1764   -3.0056    2.7683 H   0  0  0
   -5.5618   -3.1986    2.0459 H   0  0  0
   -7.3487   -2.9750    0.3160 H   0  0  0
   -8.1280   -4.4397    0.9590 H   0  0  0
   -1.7873   -4.8289   -0.5764 H   0  0  0
  1  2  1  0
  1 25  1  0
  2  3  2  0
  2  4  1  0
  4 23  4  0
  4  5  4  0
  5  6  4  0
  5 26  1  0
  6  7  1  0
  6 10  4  0
  7  9  1  0
  7  8  1  0
  7 27  1  0
  8  9  1  0
  8 28  1  0
  8 29  1  0
  9 30  1  0
  9 31  1  0
 10 22  4  0
 10 11  4  0
 11 12  4  0
 11 32  1  0
 12 13  1  0
 12 19  4  0
 13 18  1  0
 13 14  1  0
 14 15  1  0
 14 33  1  0
 14 34  1  0
 15 16  1  0
 15 35  1  0
 15 36  1  0
 16 17  1  0
 16 37  1  0
 17 18  1  0
 17 38  1  0
 17 39  1  0
 18 40  1  0
 18 41  1  0
 19 20  1  0
 19 21  4  0
 21 22  4  0
 21 42  1  0
 22 23  4  0
 23 24  2  0
M  END
$$$$
OC(=O)c1cn(C2CC2)c3cc(N4CCNCC4)c(F)cc3c1=O
CHcorina  02210111263D 1   1.00000    23.00000     0
CORINA evaluation copy  2.4  150  11.12.1900 (2001-3)
 42 45  0  0  0  0              1 V2000
   -0.0741    1.3224   -0.5345 O   0  0  0
   -0.0383   -0.0180   -0.3955 C   0  0  0
    1.0216   -0.6087   -0.4690 O   0  0  0
   -1.2807   -0.7651   -0.1551 C   0  0  0
   -2.4905   -0.1065   -0.0753 C   0  0  0
   -3.6424   -0.7547    0.1426 N   0  0  0
   -4.8824    0.0223    0.2125 C   0  0  0
   -4.7576    1.5399    0.3615 C   0  0  0
   -5.2108    0.9366   -0.9695 C   0  0  0
   -3.7102   -2.1227    0.3035 C   0  0  0
   -4.9320   -2.7468    0.5270 C   0  0  0
   -4.9840   -4.1220    0.6863 C   0  0  0
   -6.2091   -4.7455    0.9102 N   0  0  0
   -7.2308   -3.6913    0.8804 C   0  0  0
   -7.2611   -2.9680    2.2275 C   0  0  0
   -7.9123   -3.8207    3.2299 N   0  0  0
   -7.5771   -5.2090    2.8888 C   0  0  0
   -6.1738   -5.2641    2.2834 C   0  0  0
   -3.8172   -4.8887    0.6236 C   0  0  0
   -3.8841   -6.2289    0.7805 F   0  0  0
   -2.6096   -4.2894    0.4041 C   0  0  0
   -2.5414   -2.9032    0.2425 C   0  0  0
   -1.2553   -2.2292   -0.0016 C   0  0  0
   -0.2126   -2.8568   -0.0702 O   0  0  0
    0.7435    1.8141   -0.6927 H   0  0  0
   -2.5094    0.9670   -0.1921 H   0  0  0
   -5.7156   -0.4665    0.7174 H   0  0  0
   -5.5088    2.0499    0.9646 H   0  0  0
   -3.7530    1.9602    0.4075 H   0  0  0
   -4.5042    0.9599   -1.7992 H   0  0  0
   -6.2601    1.0496   -1.2420 H   0  0  0
   -5.8381   -2.1613    0.5768 H   0  0  0
   -6.9935   -2.9782    0.0909 H   0  0  0
   -8.2063   -4.1369    0.6857 H   0  0  0
   -6.2416   -2.7489    2.5448 H   0  0  0
   -7.8179   -2.0364    2.1268 H   0  0  0
   -8.9070   -3.7207    3.0935 H   0  0  0
   -7.6079   -5.8216    3.7899 H   0  0  0
   -8.2992   -5.5897    2.1664 H   0  0  0
   -5.8235   -6.2962    2.2726 H   0  0  0
   -5.4958   -4.6570    2.8833 H   0  0  0
   -1.7101   -4.8852    0.3563 H   0  0  0
  1  2  1  0
  1 25  1  0
  2  3  2  0
  2  4  1  0
  4 23  4  0
  4  5  4  0
  5  6  4  0
  5 26  1  0
  6  7  1  0
  6 10  4  0
  7  9  1  0
  7  8  1  0
  7 27  1  0
  8  9  1  0
  8 28  1  0
  8 29  1  0
  9 30  1  0
  9 31  1  0
 10 22  4  0
 10 11  4  0
 11 12  4  0
 11 32  1  0
 12 13  1  0
 12 19  4  0
 13 18  1  0
 13 14  1  0
 14 15  1  0
 14 33  1  0
 14 34  1  0
 15 16  1  0
 15 35  1  0
 15 36  1  0
 16 17  1  0
 16 37  1  0
 17 18  1  0
 17 38  1  0
 17 39  1  0
 18 40  1  0
 18 41  1  0
 19 20  1  0
 19 21  4  0
 21 22  4  0
 21 42  1  0
 22 23  4  0
 23 24  2  0
M  END
$$$$
