NC(=O)OCC(COC(=O)N)c1ccccc1
CHcorina  02210111253D 1   1.00000     0.00000     0
CORINA evaluation copy  2.4  150  11.12.1900 (2001-3)
 31 31  0  0  0  0              1 V2000
   -0.0162    1.3436    0.0094 N   0  0  0
    0.0021   -0.0041    0.0020 C   0  0  0
    1.0625   -0.5972   -0.0113 O   0  0  0
   -1.1546   -0.6930    0.0094 O   0  0  0
   -1.1349   -2.1449    0.0014 C   0  0  0
   -2.5703   -2.6745    0.0122 C   0  0  0
   -2.5496   -4.2043    0.0038 C   0  0  0
   -3.9118   -4.7069    0.0141 O   0  0  0
   -4.1398   -6.0338    0.0092 C   0  0  0
   -3.2056   -6.8108   -0.0039 O   0  0  0
   -5.4042   -6.5003    0.0188 N   0  0  0
   -3.2757   -2.1885    1.2521 C   0  0  0
   -2.7837   -2.5180    2.5014 C   0  0  0
   -3.4306   -2.0723    3.6386 C   0  0  0
   -4.5695   -1.2965    3.5268 C   0  0  0
   -5.0608   -0.9663    2.2778 C   0  0  0
   -4.4113   -1.4086    1.1403 C   0  0  0
    0.8172    1.8399    0.0041 H   0  0  0
   -0.8627    1.8171    0.0160 H   0  0  0
   -0.6247   -2.4964   -0.8954 H   0  0  0
   -0.6077   -2.5060    0.8844 H   0  0  0
   -3.0975   -2.3134   -0.8708 H   0  0  0
   -2.0394   -4.5558   -0.8930 H   0  0  0
   -2.0224   -4.5654    0.8869 H   0  0  0
   -5.5685   -7.4563    0.0152 H   0  0  0
   -6.1500   -5.8801    0.0292 H   0  0  0
   -1.8940   -3.1241    2.5888 H   0  0  0
   -3.0466   -2.3304    4.6145 H   0  0  0
   -5.0754   -0.9488    4.4153 H   0  0  0
   -5.9507   -0.3605    2.1905 H   0  0  0
   -4.7952   -1.1505    0.1644 H   0  0  0
  1  2  1  0
  1 18  1  0
  1 19  1  0
  2  3  2  0
  2  4  1  0
  4  5  1  0
  5  6  1  0
  5 20  1  0
  5 21  1  0
  6  7  1  0
  6 12  1  0
  6 22  1  0
  7  8  1  0
  7 23  1  0
  7 24  1  0
  8  9  1  0
  9 10  2  0
  9 11  1  0
 11 25  1  0
 11 26  1  0
 12 17  4  0
 12 13  4  0
 13 14  4  0
 13 27  1  0
 14 15  4  0
 14 28  1  0
 15 16  4  0
 15 29  1  0
 16 17  4  0
 16 30  1  0
 17 31  1  0
M  END
$$$$
