OC1N=C(c2ccccc2Cl)c3cc(Cl)ccc3NC1=O
CHcorina  02210111263D 1   1.00000     0.00000     0
CORINA evaluation copy  2.4  150  11.12.1900 (2001-3)
 31 33  0  0  0  0              1 V2000
    0.0259    1.2382   -0.1102 O   0  0  0
   -0.1519   -0.1734    0.0233 C   0  0  0
    0.5568   -0.6461    1.2118 N   0  0  0
    0.3268   -0.1571    2.3790 C   0  0  0
    1.0941   -0.7121    3.5177 C   0  0  0
    2.4761   -0.5338    3.5845 C   0  0  0
    3.1852   -1.0526    4.6478 C   0  0  0
    2.5292   -1.7491    5.6477 C   0  0  0
    1.1596   -1.9303    5.5882 C   0  0  0
    0.4368   -1.4108    4.5316 C   0  0  0
   -1.2826   -1.6383    4.4581 Cl  0  0  0
   -0.6412    0.9128    2.6675 C   0  0  0
   -0.2665    1.8956    3.5966 C   0  0  0
   -1.1248    2.9253    3.9094 C   0  0  0
   -0.6475    4.1336    5.0608 Cl  0  0  0
   -2.3701    2.9977    3.3048 C   0  0  0
   -2.7516    2.0395    2.3920 C   0  0  0
   -1.8945    0.9870    2.0636 C   0  0  0
   -2.3512    0.0587    1.1403 N   0  0  0
   -1.6160   -0.4848    0.1733 C   0  0  0
   -2.1402   -1.2503   -0.6078 O   0  0  0
    0.9759    1.3927   -0.2035 H   0  0  0
    0.2395   -0.6758   -0.8613 H   0  0  0
    2.9898    0.0092    2.8050 H   0  0  0
    4.2552   -0.9152    4.7000 H   0  0  0
    3.0894   -2.1532    6.4779 H   0  0  0
    0.6535   -2.4754    6.3713 H   0  0  0
    0.7027    1.8435    4.0701 H   0  0  0
   -3.0424    3.8065    3.5503 H   0  0  0
   -3.7235    2.1028    1.9254 H   0  0  0
   -3.2791   -0.2166    1.2045 H   0  0  0
  1  2  1  0
  1 22  1  0
  2 20  1  0
  2  3  1  0
  2 23  1  0
  3  4  2  0
  4  5  1  0
  4 12  1  0
  5 10  4  0
  5  6  4  0
  6  7  4  0
  6 24  1  0
  7  8  4  0
  7 25  1  0
  8  9  4  0
  8 26  1  0
  9 10  4  0
  9 27  1  0
 10 11  1  0
 12 18  4  0
 12 13  4  0
 13 14  4  0
 13 28  1  0
 14 15  1  0
 14 16  4  0
 16 17  4  0
 16 29  1  0
 17 18  4  0
 17 30  1  0
 18 19  1  0
 19 20  1  0
 19 31  1  0
 20 21  2  0
M  END
$$$$
OC1N=C(c2ccccc2Cl)c3cc(Cl)ccc3NC1=O
CHcorina  02210111263D 1   1.00000     0.00000     0
CORINA evaluation copy  2.4  150  11.12.1900 (2001-3)
 31 33  0  0  0  0              1 V2000
   -0.4417    1.3601    0.2305 O   0  0  0
   -0.1998   -0.0426    0.1046 C   0  0  0
    0.5127   -0.5252    1.2868 N   0  0  0
    0.9087   -1.7446    1.3904 C   0  0  0
    1.6141   -2.1327    2.6334 C   0  0  0
    2.8579   -1.5779    2.9354 C   0  0  0
    3.5099   -1.9428    4.0949 C   0  0  0
    2.9331   -2.8576    4.9586 C   0  0  0
    1.7008   -3.4121    4.6659 C   0  0  0
    1.0346   -3.0507    3.5107 C   0  0  0
   -0.5128   -3.7471    3.1444 Cl  0  0  0
    0.7129   -2.7829    0.3664 C   0  0  0
    1.7731   -3.6715    0.1302 C   0  0  0
    1.6556   -4.6643   -0.8159 C   0  0  0
    2.9756   -5.7562   -1.0968 Cl  0  0  0
    0.4834   -4.7921   -1.5448 C   0  0  0
   -0.5657   -3.9278   -1.3228 C   0  0  0
   -0.4648   -2.9156   -0.3660 C   0  0  0
   -1.5647   -2.0884   -0.1961 N   0  0  0
   -1.5107   -0.7724   -0.0056 C   0  0  0
   -2.5452   -0.1453    0.0809 O   0  0  0
    0.4229    1.7879    0.2981 H   0  0  0
    0.3995   -0.2315   -0.7861 H   0  0  0
    3.3097   -0.8642    2.2624 H   0  0  0
    4.4730   -1.5140    4.3291 H   0  0  0
    3.4480   -3.1397    5.8651 H   0  0  0
    1.2562   -4.1259    5.3436 H   0  0  0
    2.6886   -3.5754    0.6951 H   0  0  0
    0.3928   -5.5703   -2.2882 H   0  0  0
   -1.4757   -4.0338   -1.8948 H   0  0  0
   -2.4422   -2.5011   -0.2180 H   0  0  0
  1  2  1  0
  1 22  1  0
  2 20  1  0
  2  3  1  0
  2 23  1  0
  3  4  2  0
  4  5  1  0
  4 12  1  0
  5 10  4  0
  5  6  4  0
  6  7  4  0
  6 24  1  0
  7  8  4  0
  7 25  1  0
  8  9  4  0
  8 26  1  0
  9 10  4  0
  9 27  1  0
 10 11  1  0
 12 18  4  0
 12 13  4  0
 13 14  4  0
 13 28  1  0
 14 15  1  0
 14 16  4  0
 16 17  4  0
 16 29  1  0
 17 18  4  0
 17 30  1  0
 18 19  1  0
 19 20  1  0
 19 31  1  0
 20 21  2  0
M  END
$$$$
