CC(C)NCC(O)c1cc(O)cc(O)c1
CHcorina  02210111263D 1   1.00000     0.00000     0
CORINA evaluation copy  2.4  150  11.12.1900 (2001-3)
 32 32  0  0  0  0              1 V2000
   -0.0187    1.5258    0.0104 C   0  0  0
    0.0021   -0.0041    0.0020 C   0  0  0
    0.7421   -0.5109    1.2415 C   0  0  0
   -1.3761   -0.5125    0.0124 N   0  0  0
   -1.3571   -1.7981   -0.6982 C   0  0  0
   -2.7690   -2.3869   -0.7249 C   0  0  0
   -3.6491   -1.4839   -1.3972 O   0  0  0
   -2.7496   -3.7057   -1.4539 C   0  0  0
   -2.9522   -3.7415   -2.8205 C   0  0  0
   -2.9352   -4.9545   -3.4939 C   0  0  0
   -3.1345   -4.9891   -4.8378 O   0  0  0
   -2.7143   -6.1313   -2.7947 C   0  0  0
   -2.5109   -6.0927   -1.4241 C   0  0  0
   -2.2941   -7.2444   -0.7361 O   0  0  0
   -2.5236   -4.8763   -0.7558 C   0  0  0
    1.0039    1.9031    0.0027 H   0  0  0
   -0.5459    1.8868   -0.8726 H   0  0  0
   -0.5289    1.8773    0.9072 H   0  0  0
    0.5123   -0.3556   -0.8948 H   0  0  0
    0.2319   -0.1594    2.1383 H   0  0  0
    0.7568   -1.6008    1.2356 H   0  0  0
    1.7647   -0.1336    1.2338 H   0  0  0
   -1.6027   -0.7163    0.9743 H   0  0  0
   -1.0085   -1.6436   -1.7193 H   0  0  0
   -0.6858   -2.4869   -0.1854 H   0  0  0
   -3.1176   -2.5414    0.2963 H   0  0  0
   -3.3057   -1.3750   -2.2946 H   0  0  0
   -3.1242   -2.8246   -3.3646 H   0  0  0
   -2.2643   -4.9072   -5.2516 H   0  0  0
   -2.7010   -7.0765   -3.3171 H   0  0  0
   -1.3384   -7.3921   -0.7323 H   0  0  0
   -2.3652   -4.8457    0.3120 H   0  0  0
  1  2  1  0
  1 16  1  0
  1 17  1  0
  1 18  1  0
  2  3  1  0
  2  4  1  0
  2 19  1  0
  3 20  1  0
  3 21  1  0
  3 22  1  0
  4  5  1  0
  4 23  1  0
  5  6  1  0
  5 24  1  0
  5 25  1  0
  6  7  1  0
  6  8  1  0
  6 26  1  0
  7 27  1  0
  8 15  4  0
  8  9  4  0
  9 10  4  0
  9 28  1  0
 10 11  1  0
 10 12  4  0
 11 29  1  0
 12 13  4  0
 12 30  1  0
 13 14  1  0
 13 15  4  0
 14 31  1  0
 15 32  1  0
M  END
$$$$
