CC(N)(Cc1ccc(O)c(O)c1)C(=O)O
CHcorina  02210111263D 1   1.00000     0.00000     0
CORINA evaluation copy  2.4  150  11.12.1900 (2001-3)
 28 28  0  0  0  0              1 V2000
   -0.0187    1.5258    0.0104 C   0  0  0
    0.0021   -0.0041    0.0020 C   0  0  0
   -1.3761   -0.5125    0.0124 N   0  0  0
    0.7182   -0.4975   -1.2568 C   0  0  0
   -0.0107    0.0017   -2.4777 C   0  0  0
   -1.0265   -0.7548   -3.0319 C   0  0  0
   -1.6984   -0.3010   -4.1516 C   0  0  0
   -1.3543    0.9145   -4.7209 C   0  0  0
   -2.0146    1.3626   -5.8221 O   0  0  0
   -0.3318    1.6760   -4.1630 C   0  0  0
    0.0093    2.8698   -4.7179 O   0  0  0
    0.3341    1.2177   -3.0376 C   0  0  0
    0.7309   -0.5033    1.2229 C   0  0  0
    1.9242   -0.6883    1.1806 O   0  0  0
    0.0545   -0.7424    2.3574 O   0  0  0
    1.0039    1.9031    0.0027 H   0  0  0
   -0.5459    1.8868   -0.8726 H   0  0  0
   -0.5289    1.8773    0.9072 H   0  0  0
   -1.3136   -1.5196    0.0064 H   0  0  0
   -1.7745   -0.2520    0.9021 H   0  0  0
    1.7408   -0.1202   -1.2645 H   0  0  0
    0.7330   -1.5874   -1.2628 H   0  0  0
   -1.2955   -1.7025   -2.5893 H   0  0  0
   -2.4914   -0.8940   -4.5828 H   0  0  0
   -2.7654    1.8832   -5.5052 H   0  0  0
   -0.5358    3.5434   -4.2888 H   0  0  0
    1.1281    1.8068   -2.6027 H   0  0  0
    0.5222   -1.0628    3.1408 H   0  0  0
  1  2  1  0
  1 16  1  0
  1 17  1  0
  1 18  1  0
  2  3  1  0
  2  4  1  0
  2 13  1  0
  3 19  1  0
  3 20  1  0
  4  5  1  0
  4 21  1  0
  4 22  1  0
  5 12  4  0
  5  6  4  0
  6  7  4  0
  6 23  1  0
  7  8  4  0
  7 24  1  0
  8  9  1  0
  8 10  4  0
  9 25  1  0
 10 11  1  0
 10 12  4  0
 11 26  1  0
 12 27  1  0
 13 14  2  0
 13 15  1  0
 15 28  1  0
M  END
$$$$
