CC(N)COc1c(C)cccc1C
CHcorina  02210111263D 1   1.00000     0.00000     0
CORINA evaluation copy  2.4  150  11.12.1900 (2001-3)
 30 30  0  0  0  0              1 V2000
   -0.0187    1.5258    0.0104 C   0  0  0
    0.0021   -0.0041    0.0020 C   0  0  0
    0.7126   -0.4907    1.1921 N   0  0  0
   -1.4333   -0.5336    0.0129 C   0  0  0
   -1.4139   -1.9625    0.0050 O   0  0  0
   -2.7094   -2.3730    0.0152 C   0  0  0
   -3.3622   -2.5838    1.2213 C   0  0  0
   -2.6351   -2.3578    2.5218 C   0  0  0
   -4.6790   -3.0005    1.2290 C   0  0  0
   -5.3469   -3.2076    0.0359 C   0  0  0
   -4.6986   -2.9987   -1.1671 C   0  0  0
   -3.3831   -2.5763   -1.1802 C   0  0  0
   -2.6771   -2.3489   -2.4919 C   0  0  0
    1.0039    1.9031    0.0027 H   0  0  0
   -0.5459    1.8868   -0.8726 H   0  0  0
   -0.5289    1.8773    0.9072 H   0  0  0
    0.5123   -0.3556   -0.8948 H   0  0  0
    0.2077   -0.1430    1.9936 H   0  0  0
    0.6122   -1.4947    1.1994 H   0  0  0
   -1.9435   -0.1821    0.9097 H   0  0  0
   -1.9605   -0.1726   -0.8702 H   0  0  0
   -2.7702   -1.3236    2.8387 H   0  0  0
   -3.0364   -3.0265    3.2834 H   0  0  0
   -1.5729   -2.5598    2.3841 H   0  0  0
   -5.1874   -3.1650    2.1675 H   0  0  0
   -6.3765   -3.5334    0.0440 H   0  0  0
   -5.2223   -3.1615   -2.0976 H   0  0  0
   -2.8210   -1.3156   -2.8076 H   0  0  0
   -1.6121   -2.5467   -2.3704 H   0  0  0
   -3.0874   -3.0199   -3.2466 H   0  0  0
  1  2  1  0
  1 14  1  0
  1 15  1  0
  1 16  1  0
  2  3  1  0
  2  4  1  0
  2 17  1  0
  3 18  1  0
  3 19  1  0
  4  5  1  0
  4 20  1  0
  4 21  1  0
  5  6  1  0
  6 12  4  0
  6  7  4  0
  7  8  1  0
  7  9  4  0
  8 22  1  0
  8 23  1  0
  8 24  1  0
  9 10  4  0
  9 25  1  0
 10 11  4  0
 10 26  1  0
 11 12  4  0
 11 27  1  0
 12 13  1  0
 13 28  1  0
 13 29  1  0
 13 30  1  0
M  END
$$$$
