Cc1[nH]c(=O)c(C#N)cc1c2ccncc2
CHcorina  02210111263D 1   1.00000     0.00000     0
CORINA evaluation copy  2.4  150  11.12.1900 (2001-3)
 25 26  0  0  0  0              1 V2000
   -0.0184    1.5028    0.0103 C   0  0  0
    0.0021   -0.0041    0.0020 C   0  0  0
    0.0053   -0.6545   -1.1772 N   0  0  0
   -0.0055   -0.1444   -2.0022 H   0  0  0
    0.0238   -1.9999   -1.2323 C   0  0  0
    0.0268   -2.5696   -2.3098 O   0  0  0
    0.0407   -2.7740    0.0102 C   0  0  0
    0.0610   -4.2056   -0.0191 C   0  0  0
    0.0770   -5.3412   -0.0424 N   0  0  0
    0.0371   -2.0875    1.2199 C   0  0  0
    0.0227   -0.6820    1.2001 C   0  0  0
    0.0190    0.0743    2.4763 C   0  0  0
   -1.0307    0.9413    2.7942 C   0  0  0
   -0.9945    1.6252    3.9913 C   0  0  0
    0.0124    1.4696    4.8300 N   0  0  0
    1.0221    0.6617    4.5683 C   0  0  0
    1.0620   -0.0650    3.3963 C   0  0  0
    1.0042    1.8801    0.0026 H   0  0  0
   -0.5455    1.8639   -0.8728 H   0  0  0
   -0.5286    1.8543    0.9071 H   0  0  0
    0.0492   -2.6242    2.1570 H   0  0  0
   -1.8576    1.0740    2.1122 H   0  0  0
   -1.8008    2.2972    4.2457 H   0  0  0
    1.8260    0.5647    5.2830 H   0  0  0
    1.8916   -0.7245    3.1884 H   0  0  0
  1  2  1  0
  1 18  1  0
  1 19  1  0
  1 20  1  0
  2 11  4  0
  2  3  4  0
  3  4  1  0
  3  5  4  0
  5  6  2  0
  5  7  4  0
  7  8  1  0
  7 10  4  0
  8  9  3  0
 10 11  4  0
 10 21  1  0
 11 12  1  0
 12 17  4  0
 12 13  4  0
 13 14  4  0
 13 22  1  0
 14 15  4  0
 14 23  1  0
 15 16  4  0
 16 17  4  0
 16 24  1  0
 17 25  1  0
M  END
$$$$
