CN(C)C1C2CC3Cc4c(ccc(O)c4C(=O)C3=C(O)C2(O)C(=O)C(=C1O)C(=O)N)N(C)C
CHcorina  02210111253D 1   1.00000     0.00000     0
CORINA evaluation copy  2.4  150  11.12.1900 (2001-3)
 60 63  0  0  0  0              1 V2000
    0.6770    0.5151   -0.8098 C   0  0  0
   -0.0849    0.0826    0.3693 N   0  0  0
   -0.1913    1.2499    1.2547 C   0  0  0
   -1.4453   -0.2204   -0.0950 C   0  0  0
   -1.5068   -1.6700   -0.5670 C   0  0  0
   -0.4168   -1.9613   -1.5988 C   0  0  0
   -0.6594   -3.3590   -2.1697 C   0  0  0
    0.5071   -3.7683   -3.0640 C   0  0  0
    0.3074   -5.1748   -3.5625 C   0  0  0
    0.7147   -5.5285   -4.8374 C   0  0  0
    0.5280   -6.8294   -5.2931 C   0  0  0
   -0.0639   -7.7765   -4.4812 C   0  0  0
   -0.4772   -7.4362   -3.2017 C   0  0  0
   -1.0599   -8.3670   -2.4032 O   0  0  0
   -0.2903   -6.1297   -2.7372 C   0  0  0
   -0.7182   -5.7480   -1.3753 C   0  0  0
   -0.9470   -6.5979   -0.5335 O   0  0  0
   -0.8569   -4.3618   -1.0682 C   0  0  0
   -1.1661   -4.0113    0.1880 C   0  0  0
   -1.3800   -4.9895    1.0905 O   0  0  0
   -1.2857   -2.5919    0.6392 C   0  0  0
   -0.0893   -2.2072    1.3193 O   0  0  0
   -2.4677   -2.4034    1.5640 C   0  0  0
   -3.0320   -3.3474    2.0776 O   0  0  0
   -2.8983   -1.0199    1.8099 C   0  0  0
   -2.4169    0.0028    1.0307 C   0  0  0
   -2.8298    1.2534    1.2848 O   0  0  0
   -3.8501   -0.7297    2.8941 C   0  0  0
   -3.4846   -0.7778    4.0533 O   0  0  0
   -5.1267   -0.4106    2.6027 N   0  0  0
    1.3146   -4.5759   -5.6690 N   0  0  0
    2.6557   -5.0814   -5.9910 C   0  0  0
    0.5522   -4.5718   -6.9247 C   0  0  0
    1.6991    0.7527   -0.5148 H   0  0  0
    0.6890   -0.2861   -1.5487 H   0  0  0
    0.2083    1.3998   -1.2408 H   0  0  0
   -0.6463    0.9497    2.1987 H   0  0  0
    0.8030    1.6549    1.4431 H   0  0  0
   -0.8097    2.0114    0.7793 H   0  0  0
   -1.6981    0.4382   -0.9259 H   0  0  0
   -2.4857   -1.8695   -1.0030 H   0  0  0
   -0.4627   -1.2238   -2.4002 H   0  0  0
    0.5618   -1.9244   -1.1202 H   0  0  0
   -1.5593   -3.3336   -2.7842 H   0  0  0
    0.5668   -3.0885   -3.9140 H   0  0  0
    1.4351   -3.7148   -2.4948 H   0  0  0
    0.8478   -7.1004   -6.2885 H   0  0  0
   -0.2056   -8.7841   -4.8433 H   0  0  0
   -0.3483   -8.7947   -1.9074 H   0  0  0
   -0.8709   -5.0089    1.9124 H   0  0  0
   -0.0357   -2.7487    2.1187 H   0  0  0
   -3.3947    1.4301    2.0495 H   0  0  0
   -5.7342   -0.1457    3.3110 H   0  0  0
   -5.4380   -0.4459    1.6847 H   0  0  0
    3.1658   -4.3700   -6.6405 H   0  0  0
    3.2269   -5.2078   -5.0713 H   0  0  0
    2.5697   -6.0413   -6.5001 H   0  0  0
    0.9835   -3.8414   -7.6092 H   0  0  0
    0.5928   -5.5624   -7.3776 H   0  0  0
   -0.4853   -4.3085   -6.7190 H   0  0  0
  1  2  1  0
  1 34  1  0
  1 35  1  0
  1 36  1  0
  2  3  1  0
  2  4  1  0
  3 37  1  0
  3 38  1  0
  3 39  1  0
  4 26  1  0
  4  5  1  0
  4 40  1  0
  5 21  1  0
  5  6  1  0
  5 41  1  0
  6  7  1  0
  6 42  1  0
  6 43  1  0
  7 18  1  0
  7  8  1  0
  7 44  1  0
  8  9  1  0
  8 45  1  0
  8 46  1  0
  9 15  4  0
  9 10  4  0
 10 11  4  0
 10 31  1  0
 11 12  4  0
 11 47  1  0
 12 13  4  0
 12 48  1  0
 13 14  1  0
 13 15  4  0
 14 49  1  0
 15 16  1  0
 16 17  2  0
 16 18  1  0
 18 19  2  0
 19 20  1  0
 19 21  1  0
 20 50  1  0
 21 22  1  0
 21 23  1  0
 22 51  1  0
 23 24  2  0
 23 25  1  0
 25 26  2  0
 25 28  1  0
 26 27  1  0
 27 52  1  0
 28 29  2  0
 28 30  1  0
 30 53  1  0
 30 54  1  0
 31 32  1  0
 31 33  1  0
 32 55  1  0
 32 56  1  0
 32 57  1  0
 33 58  1  0
 33 59  1  0
 33 60  1  0
M  END
$$$$
