OC(=O)CCc1nc(c(o1)c2ccccc2)c3ccccc3
CHcorina  02210111253D 1   1.00000     0.00000     0
CORINA evaluation copy  2.4  150  11.12.1900 (2001-3)
 37 39  0  0  0  0              1 V2000
   -1.9800    2.1550    0.3249 O   0  0  0
   -1.4885    0.9068    0.2793 C   0  0  0
   -0.2940    0.7265    0.3044 O   0  0  0
   -2.4265   -0.2698    0.1968 C   0  0  0
   -1.6156   -1.5667    0.1579 C   0  0  0
   -2.5536   -2.7433    0.0754 C   0  0  0
   -2.9862   -3.2820   -1.0274 N   0  0  0
   -3.8041   -4.3108   -0.7203 C   0  0  0
   -3.8590   -4.3855    0.6565 C   0  0  0
   -3.0651   -3.3984    1.1262 O   0  0  0
   -4.6291   -5.3563    1.4581 C   0  0  0
   -4.5675   -6.7195    1.1585 C   0  0  0
   -5.2898   -7.6209    1.9118 C   0  0  0
   -6.0744   -7.1780    2.9624 C   0  0  0
   -6.1402   -5.8295    3.2647 C   0  0  0
   -5.4185   -4.9171    2.5233 C   0  0  0
   -4.5096   -5.1922   -1.6794 C   0  0  0
   -5.8422   -5.5411   -1.4600 C   0  0  0
   -6.4940   -6.3620   -2.3571 C   0  0  0
   -5.8284   -6.8393   -3.4723 C   0  0  0
   -4.5069   -6.4968   -3.6953 C   0  0  0
   -3.8459   -5.6717   -2.8082 C   0  0  0
   -1.3781    2.9100    0.3778 H   0  0  0
   -3.0796   -0.2757    1.0694 H   0  0  0
   -3.0295   -0.1911   -0.7078 H   0  0  0
   -0.9625   -1.5609   -0.7147 H   0  0  0
   -1.0126   -1.6455    1.0625 H   0  0  0
   -3.9559   -7.0664    0.3388 H   0  0  0
   -5.2434   -8.6750    1.6812 H   0  0  0
   -6.6382   -7.8884    3.5487 H   0  0  0
   -6.7545   -5.4909    4.0859 H   0  0  0
   -5.4705   -3.8647    2.7606 H   0  0  0
   -6.3626   -5.1698   -0.5896 H   0  0  0
   -7.5258   -6.6329   -2.1883 H   0  0  0
   -6.3427   -7.4822   -4.1713 H   0  0  0
   -3.9927   -6.8724   -4.5675 H   0  0  0
   -2.8141   -5.4050   -2.9832 H   0  0  0
  1  2  1  0
  1 23  1  0
  2  3  2  0
  2  4  1  0
  4  5  1  0
  4 24  1  0
  4 25  1  0
  5  6  1  0
  5 26  1  0
  5 27  1  0
  6 10  4  0
  6  7  4  0
  7  8  4  0
  8  9  4  0
  8 17  1  0
  9 10  4  0
  9 11  1  0
 11 16  4  0
 11 12  4  0
 12 13  4  0
 12 28  1  0
 13 14  4  0
 13 29  1  0
 14 15  4  0
 14 30  1  0
 15 16  4  0
 15 31  1  0
 16 32  1  0
 17 22  4  0
 17 18  4  0
 18 19  4  0
 18 33  1  0
 19 20  4  0
 19 34  1  0
 20 21  4  0
 20 35  1  0
 21 22  4  0
 21 36  1  0
 22 37  1  0
M  END
$$$$
