Nc1ccc(N=Nc2ccccc2)c(N)n1
CHcorina  02210111263D 1   1.00000     0.00000     0
CORINA evaluation copy  2.4  150  11.12.1900 (2001-3)
 27 28  0  0  0  0              1 V2000
   -0.0167    1.3818    0.0096 N   0  0  0
    0.0021   -0.0041    0.0020 C   0  0  0
   -1.2021   -0.7059    0.0040 C   0  0  0
   -1.1868   -2.0749   -0.0035 C   0  0  0
    0.0532   -2.7318   -0.0131 C   0  0  0
    0.1155   -4.0915   -0.0212 N   0  0  0
   -0.9709   -4.7870   -0.0201 N   0  0  0
   -0.9083   -6.1530   -0.0283 C   0  0  0
    0.3309   -6.7990   -0.0320 C   0  0  0
    0.3863   -8.1769   -0.0403 C   0  0  0
   -0.7815   -8.9197   -0.0454 C   0  0  0
   -2.0120   -8.2870   -0.0418 C   0  0  0
   -2.0829   -6.9095   -0.0272 C   0  0  0
    1.2312   -1.9620   -0.0146 C   0  0  0
    2.4646   -2.5900   -0.0239 N   0  0  0
    1.1647   -0.6401   -0.0125 N   0  0  0
    0.8166    1.8782    0.0043 H   0  0  0
   -0.8633    1.8553    0.0162 H   0  0  0
   -2.1415   -0.1731    0.0118 H   0  0  0
   -2.1089   -2.6371   -0.0017 H   0  0  0
    1.2429   -6.2206   -0.0288 H   0  0  0
    1.3433   -8.6775   -0.0432 H   0  0  0
   -0.7320   -9.9986   -0.0526 H   0  0  0
   -2.9191   -8.8731   -0.0458 H   0  0  0
   -3.0440   -6.4169   -0.0244 H   0  0  0
    3.2780   -2.0614   -0.0250 H   0  0  0
    2.5157   -3.5586   -0.0294 H   0  0  0
  1  2  1  0
  1 17  1  0
  1 18  1  0
  2 16  4  0
  2  3  4  0
  3  4  4  0
  3 19  1  0
  4  5  4  0
  4 20  1  0
  5  6  1  0
  5 14  4  0
  6  7  2  0
  7  8  1  0
  8 13  4  0
  8  9  4  0
  9 10  4  0
  9 21  1  0
 10 11  4  0
 10 22  1  0
 11 12  4  0
 11 23  1  0
 12 13  4  0
 12 24  1  0
 13 25  1  0
 14 15  1  0
 14 16  4  0
 15 26  1  0
 15 27  1  0
M  END
$$$$
