Cc1ccc(cc1)C(=O)Oc2ccc(cc2OC(=O)c3ccc(C)cc3)C(O)CNC(C)(C)C
CHcorina  02210111253D 1   1.00000     0.00000     0
CORINA evaluation copy  2.4  150  11.12.1900 (2001-3)
 65 67  0  0  0  0              1 V2000
   -1.2978    1.4300   -0.0009 C   0  0  0
   -1.0652   -0.0589   -0.0039 C   0  0  0
   -0.8553   -0.7209   -1.2009 C   0  0  0
   -0.6413   -2.0834   -1.2109 C   0  0  0
   -0.6369   -2.7950   -0.0092 C   0  0  0
   -0.8493   -2.1208    1.1947 C   0  0  0
   -1.0569   -0.7569    1.1906 C   0  0  0
   -0.4089   -4.2544   -0.0121 C   0  0  0
   -0.2247   -4.8384   -1.0614 O   0  0  0
   -0.4052   -4.9379    1.1487 O   0  0  0
   -0.2766   -6.2913    1.1403 C   0  0  0
   -0.2923   -6.9832   -0.0607 C   0  0  0
   -0.1615   -8.3591   -0.0673 C   0  0  0
   -0.0147   -9.0487    1.1223 C   0  0  0
    0.0019   -8.3654    2.3234 C   0  0  0
   -0.1230   -6.9850    2.3373 C   0  0  0
   -0.1064   -6.3111    3.5180 O   0  0  0
   -0.1021   -6.9904    4.6813 C   0  0  0
   -0.1823   -8.2026    4.6771 O   0  0  0
    0.0003   -6.2614    5.9619 C   0  0  0
    0.0868   -4.8676    5.9706 C   0  0  0
    0.1817   -4.1932    7.1700 C   0  0  0
    0.1912   -4.8946    8.3629 C   0  0  0
    0.2946   -4.1508    9.6695 C   0  0  0
    0.1058   -6.2754    8.3616 C   0  0  0
    0.0051   -6.9623    7.1693 C   0  0  0
    0.1271  -10.5490    1.1088 C   0  0  0
    0.9207  -10.9624    2.2230 O   0  0  0
   -1.2577  -11.1929    1.2022 C   0  0  0
   -1.1195  -12.6554    1.1891 N   0  0  0
   -2.4773  -13.2085    1.2808 C   0  0  0
   -2.4070  -14.7368    1.2722 C   0  0  0
   -3.1341  -12.7354    2.5791 C   0  0  0
   -3.3049  -12.7293    0.0865 C   0  0  0
   -0.3420    1.9469    0.0850 H   0  0  0
   -1.7872    1.7231   -0.9297 H   0  0  0
   -1.9325    1.6969    0.8441 H   0  0  0
   -0.8593   -0.1694   -2.1295 H   0  0  0
   -0.4780   -2.5988   -2.1458 H   0  0  0
   -0.8475   -2.6652    2.1275 H   0  0  0
   -1.2214   -0.2341    2.1212 H   0  0  0
   -0.4072   -6.4472   -0.9913 H   0  0  0
   -0.1743   -8.8969   -1.0038 H   0  0  0
    0.1167   -8.9066    3.2510 H   0  0  0
    0.0799   -4.3190    5.0403 H   0  0  0
    0.2490   -3.1154    7.1782 H   0  0  0
   -0.7052   -3.9085   10.0297 H   0  0  0
    0.8039   -4.7751   10.4037 H   0  0  0
    0.8599   -3.2309    9.5202 H   0  0  0
    0.1141   -6.8167    9.2962 H   0  0  0
   -0.0619   -8.0403    7.1697 H   0  0  0
    0.6108  -10.8599    0.1829 H   0  0  0
    0.4585  -10.6684    3.0198 H   0  0  0
   -1.7413  -10.8819    2.1281 H   0  0  0
   -1.8630  -10.8776    0.3523 H   0  0  0
   -0.7656  -12.9050    0.2777 H   0  0  0
   -3.4145  -15.1473    1.3402 H   0  0  0
   -1.9391  -15.0739    0.3472 H   0  0  0
   -1.8174  -15.0782    2.1230 H   0  0  0
   -2.5445  -13.0768    3.4299 H   0  0  0
   -3.1841  -11.6466    2.5852 H   0  0  0
   -4.1416  -13.1459    2.6472 H   0  0  0
   -2.8370  -13.0663   -0.8385 H   0  0  0
   -4.3124  -13.1397    0.1545 H   0  0  0
   -3.3550  -11.6405    0.0926 H   0  0  0
  1  2  1  0
  1 35  1  0
  1 36  1  0
  1 37  1  0
  2  7  4  0
  2  3  4  0
  3  4  4  0
  3 38  1  0
  4  5  4  0
  4 39  1  0
  5  6  4  0
  5  8  1  0
  6  7  4  0
  6 40  1  0
  7 41  1  0
  8  9  2  0
  8 10  1  0
 10 11  1  0
 11 16  4  0
 11 12  4  0
 12 13  4  0
 12 42  1  0
 13 14  4  0
 13 43  1  0
 14 15  4  0
 14 27  1  0
 15 16  4  0
 15 44  1  0
 16 17  1  0
 17 18  1  0
 18 19  2  0
 18 20  1  0
 20 26  4  0
 20 21  4  0
 21 22  4  0
 21 45  1  0
 22 23  4  0
 22 46  1  0
 23 24  1  0
 23 25  4  0
 24 47  1  0
 24 48  1  0
 24 49  1  0
 25 26  4  0
 25 50  1  0
 26 51  1  0
 27 28  1  0
 27 29  1  0
 27 52  1  0
 28 53  1  0
 29 30  1  0
 29 54  1  0
 29 55  1  0
 30 31  1  0
 30 56  1  0
 31 32  1  0
 31 33  1  0
 31 34  1  0
 32 57  1  0
 32 58  1  0
 32 59  1  0
 33 60  1  0
 33 61  1  0
 33 62  1  0
 34 63  1  0
 34 64  1  0
 34 65  1  0
M  END
$$$$
