CC(C)(C)NC(=O)C1CCC2C3CCC4NC(=O)C=CC4(C)C3CCC12C
CHcorina  02210111263D 1   1.00000     0.00000     0
CORINA evaluation copy  2.4  150  11.12.1900 (2001-3)
 63 66  0  0  0  0              1 V2000
    1.0592   -1.8803    3.0701 C   0  0  0
    0.5948   -1.7019    1.6232 C   0  0  0
    0.7631   -0.2383    1.2104 C   0  0  0
    1.4355   -2.5909    0.7046 C   0  0  0
   -0.8158   -2.0814    1.5128 N   0  0  0
   -1.4431   -2.0048    0.3224 C   0  0  0
   -0.8397   -1.6216   -0.6575 O   0  0  0
   -2.8942   -2.3951    0.2088 C   0  0  0
   -3.5561   -1.6602   -0.9836 C   0  0  0
   -4.1231   -2.7638   -1.9180 C   0  0  0
   -4.3133   -3.9520   -0.9687 C   0  0  0
   -4.3308   -5.3201   -1.6226 C   0  0  0
   -5.5194   -5.4452   -2.5746 C   0  0  0
   -5.5571   -6.8529   -3.1791 C   0  0  0
   -5.6802   -7.8736   -2.0504 C   0  0  0
   -5.7785   -9.2345   -2.5689 N   0  0  0
   -5.5130  -10.2751   -1.7506 C   0  0  0
   -5.6898  -11.4149   -2.1364 O   0  0  0
   -5.0087  -10.0262   -0.3904 C   0  0  0
   -4.5220   -8.8265   -0.0734 C   0  0  0
   -4.4722   -7.7528   -1.1232 C   0  0  0
   -3.1949   -7.9239   -1.9480 C   0  0  0
   -4.4578   -6.3613   -0.4969 C   0  0  0
   -3.3133   -6.2431    0.5034 C   0  0  0
   -3.2043   -4.8149    1.0640 C   0  0  0
   -3.0182   -3.8802   -0.1146 C   0  0  0
   -1.8194   -4.3316   -0.9512 C   0  0  0
    2.1088   -1.5979    3.1523 H   0  0  0
    0.4603   -1.2470    3.7246 H   0  0  0
    0.9393   -2.9230    3.3643 H   0  0  0
    0.1642    0.3950    1.8648 H   0  0  0
    1.8127    0.0440    1.2925 H   0  0  0
    0.4323   -0.1113    0.1796 H   0  0  0
    1.3157   -3.6336    0.9987 H   0  0  0
    1.1047   -2.4638   -0.3262 H   0  0  0
    2.4851   -2.3085    0.7868 H   0  0  0
   -1.2984   -2.3878    2.2965 H   0  0  0
   -3.4203   -2.1650    1.1352 H   0  0  0
   -4.3636   -1.0205   -0.6273 H   0  0  0
   -2.8136   -1.0651   -1.5152 H   0  0  0
   -5.0771   -2.4549   -2.3452 H   0  0  0
   -3.4085   -3.0085   -2.7038 H   0  0  0
   -5.1939   -3.8043   -0.3435 H   0  0  0
   -3.3986   -5.4788   -2.1648 H   0  0  0
   -6.4434   -5.2618   -2.0262 H   0  0  0
   -5.4221   -4.7104   -3.3738 H   0  0  0
   -6.4149   -6.9409   -3.8458 H   0  0  0
   -4.6388   -7.0351   -3.7373 H   0  0  0
   -6.5841   -7.6601   -1.4799 H   0  0  0
   -6.0324   -9.3897   -3.4921 H   0  0  0
   -5.0332  -10.8132    0.3487 H   0  0  0
   -4.1677   -8.6282    0.9273 H   0  0  0
   -3.1985   -8.9044   -2.4241 H   0  0  0
   -3.1498   -7.1487   -2.7130 H   0  0  0
   -2.3265   -7.8405   -1.2945 H   0  0  0
   -5.3977   -6.2002    0.0311 H   0  0  0
   -3.4855   -6.9371    1.3261 H   0  0  0
   -2.3781   -6.5041    0.0078 H   0  0  0
   -4.1169   -4.5569    1.6013 H   0  0  0
   -2.3465   -4.7435    1.7327 H   0  0  0
   -1.9595   -5.3684   -1.2570 H   0  0  0
   -1.7352   -3.7001   -1.8357 H   0  0  0
   -0.9095   -4.2478   -0.3570 H   0  0  0
  1  2  1  0
  1 28  1  0
  1 29  1  0
  1 30  1  0
  2  3  1  0
  2  4  1  0
  2  5  1  0
  3 31  1  0
  3 32  1  0
  3 33  1  0
  4 34  1  0
  4 35  1  0
  4 36  1  0
  5  6  1  0
  5 37  1  0
  6  7  2  0
  6  8  1  0
  8 26  1  0
  8  9  1  0
  8 38  1  0
  9 10  1  0
  9 39  1  0
  9 40  1  0
 10 11  1  0
 10 41  1  0
 10 42  1  0
 11 26  1  0
 11 12  1  0
 11 43  1  0
 12 23  1  0
 12 13  1  0
 12 44  1  0
 13 14  1  0
 13 45  1  0
 13 46  1  0
 14 15  1  0
 14 47  1  0
 14 48  1  0
 15 21  1  0
 15 16  1  0
 15 49  1  0
 16 17  1  0
 16 50  1  0
 17 18  2  0
 17 19  1  0
 19 20  2  0
 19 51  1  0
 20 21  1  0
 20 52  1  0
 21 22  1  0
 21 23  1  0
 22 53  1  0
 22 54  1  0
 22 55  1  0
 23 24  1  0
 23 56  1  0
 24 25  1  0
 24 57  1  0
 24 58  1  0
 25 26  1  0
 25 59  1  0
 25 60  1  0
 26 27  1  0
 27 61  1  0
 27 62  1  0
 27 63  1  0
M  END
$$$$
CC(C)(C)NC(=O)C1CCC2C3CCC4NC(=O)C=CC4(C)C3CCC12C
CHcorina  02210111263D 1   1.00000     1.00000     0
CORINA evaluation copy  2.4  150  11.12.1900 (2001-3)
 63 66  0  0  0  0              1 V2000
    0.9061   -2.0203    3.2222 C   0  0  0
    0.5343   -1.7416    1.7645 C   0  0  0
    0.6985   -0.2487    1.4727 C   0  0  0
    1.4521   -2.5456    0.8414 C   0  0  0
   -0.8577   -2.1345    1.5319 N   0  0  0
   -1.4068   -1.9790    0.3109 C   0  0  0
   -0.7485   -1.5139   -0.5953 O   0  0  0
   -2.8388   -2.3831    0.0717 C   0  0  0
   -3.3970   -1.7002   -1.2070 C   0  0  0
   -4.3073   -2.7459   -1.8983 C   0  0  0
   -4.3197   -3.9506   -0.9627 C   0  0  0
   -4.3963   -5.3081   -1.6309 C   0  0  0
   -5.6878   -5.4387   -2.4368 C   0  0  0
   -5.7761   -6.8364   -3.0591 C   0  0  0
   -5.7500   -7.8784   -1.9434 C   0  0  0
   -5.8935   -9.2346   -2.4645 N   0  0  0
   -5.5205  -10.2810   -1.6972 C   0  0  0
   -5.7269  -11.4180   -2.0762 O   0  0  0
   -4.8635  -10.0442   -0.4019 C   0  0  0
   -4.3601   -8.8420   -0.1225 C   0  0  0
   -4.4493   -7.7511   -1.1517 C   0  0  0
   -3.2720   -7.8920   -2.1186 C   0  0  0
   -4.3778   -6.3665   -0.5138 C   0  0  0
   -3.1330   -6.2441    0.3580 C   0  0  0
   -2.9778   -4.8194    0.9164 C   0  0  0
   -2.9323   -3.8741   -0.2691 C   0  0  0
   -1.8107   -4.2750   -1.2294 C   0  0  0
    1.9418   -1.7280    3.3953 H   0  0  0
    0.2522   -1.4475    3.8799 H   0  0  0
    0.7892   -3.0839    3.4301 H   0  0  0
    0.0446    0.3241    2.1304 H   0  0  0
    1.7342    0.0436    1.6458 H   0  0  0
    0.4336   -0.0502    0.4342 H   0  0  0
    1.3352   -3.6092    1.0493 H   0  0  0
    1.1873   -2.3471   -0.1971 H   0  0  0
    2.4879   -2.2533    1.0145 H   0  0  0
   -1.3843   -2.5064    2.2567 H   0  0  0
   -3.4556   -2.1457    0.9384 H   0  0  0
   -3.9780   -0.8183   -0.9371 H   0  0  0
   -2.5781   -1.4204   -1.8697 H   0  0  0
   -5.3156   -2.3494   -2.0180 H   0  0  0
   -3.8948   -3.0243   -2.8681 H   0  0  0
   -5.1168   -3.8472   -0.2264 H   0  0  0
   -3.5331   -5.4461   -2.2820 H   0  0  0
   -6.5423   -5.2810   -1.7788 H   0  0  0
   -5.6978   -4.6892   -3.2281 H   0  0  0
   -6.7050   -6.9274   -3.6220 H   0  0  0
   -4.9281   -6.9937   -3.7255 H   0  0  0
   -6.5855   -7.6868   -1.2702 H   0  0  0
   -6.2534   -9.3824   -3.3531 H   0  0  0
   -4.7889  -10.8432    0.3209 H   0  0  0
   -3.8930   -8.6543    0.8330 H   0  0  0
   -3.3169   -8.8658   -2.6063 H   0  0  0
   -3.3243   -7.1058   -2.8718 H   0  0  0
   -2.3361   -7.8048   -1.5668 H   0  0  0
   -5.2548   -6.2255    0.1179 H   0  0  0
   -3.2088   -6.9462    1.1883 H   0  0  0
   -2.2545   -6.4911   -0.2382 H   0  0  0
   -3.8283   -4.5757    1.5531 H   0  0  0
   -2.0525   -4.7434    1.4875 H   0  0  0
   -1.9505   -5.3106   -1.5393 H   0  0  0
   -1.8338   -3.6272   -2.1057 H   0  0  0
   -0.8486   -4.1727   -0.7272 H   0  0  0
  1  2  1  0
  1 28  1  0
  1 29  1  0
  1 30  1  0
  2  3  1  0
  2  4  1  0
  2  5  1  0
  3 31  1  0
  3 32  1  0
  3 33  1  0
  4 34  1  0
  4 35  1  0
  4 36  1  0
  5  6  1  0
  5 37  1  0
  6  7  2  0
  6  8  1  0
  8 26  1  0
  8  9  1  0
  8 38  1  0
  9 10  1  0
  9 39  1  0
  9 40  1  0
 10 11  1  0
 10 41  1  0
 10 42  1  0
 11 26  1  0
 11 12  1  0
 11 43  1  0
 12 23  1  0
 12 13  1  0
 12 44  1  0
 13 14  1  0
 13 45  1  0
 13 46  1  0
 14 15  1  0
 14 47  1  0
 14 48  1  0
 15 21  1  0
 15 16  1  0
 15 49  1  0
 16 17  1  0
 16 50  1  0
 17 18  2  0
 17 19  1  0
 19 20  2  0
 19 51  1  0
 20 21  1  0
 20 52  1  0
 21 22  1  0
 21 23  1  0
 22 53  1  0
 22 54  1  0
 22 55  1  0
 23 24  1  0
 23 56  1  0
 24 25  1  0
 24 57  1  0
 24 58  1  0
 25 26  1  0
 25 59  1  0
 25 60  1  0
 26 27  1  0
 27 61  1  0
 27 62  1  0
 27 63  1  0
M  END
$$$$
