OC(=O)P(=O)(O)O
CHcorina  02210111263D 1   1.00000     0.00000     0
CORINA evaluation copy  2.4  150  11.12.1900 (2001-3)
 10  9  0  0  0  0              1 V2000
   -0.0161    1.3381    0.0094 O   0  0  0
    0.0021   -0.0041    0.0020 C   0  0  0
    1.0565   -0.5939   -0.0112 O   0  0  0
   -1.5564   -0.9324    0.0119 P   0  0  0
   -2.3487   -0.5789   -1.1871 O   0  0  0
   -1.2408   -2.5111    0.0004 O   0  0  0
   -2.3932   -0.5620    1.3365 O   0  0  0
    0.8146    1.8329    0.0041 H   0  0  0
   -2.0937   -2.9667    0.0061 H   0  0  0
   -1.8427   -0.8075    2.0927 H   0  0  0
  1  2  1  0
  1  8  1  0
  2  3  2  0
  2  4  1  0
  4  5  2  0
  4  6  1  0
  4  7  1  0
  6  9  1  0
  7 10  1  0
M  END
$$$$
