NNc1nncc2ccccc12
CHcorina  02210111263D 1   1.00000     0.00000     0
CORINA evaluation copy  2.4  150  11.12.1900 (2001-3)
 20 21  0  0  0  0              1 V2000
   -0.0164    1.3618    0.0095 N   0  0  0
    0.0021   -0.0041    0.0020 N   0  0  0
   -1.1879   -0.7128    0.0096 C   0  0  0
   -2.3483   -0.0803    0.0186 N   0  0  0
   -3.4774   -0.6850    0.0259 N   0  0  0
   -3.5998   -1.9923    0.0251 C   0  0  0
   -2.4395   -2.7882    0.0159 C   0  0  0
   -2.4812   -4.1885    0.0140 C   0  0  0
   -1.3139   -4.8925    0.0045 C   0  0  0
   -0.0823   -4.2417   -0.0033 C   0  0  0
   -0.0060   -2.8801   -0.0013 C   0  0  0
   -1.1841   -2.1262    0.0019 C   0  0  0
    0.9459    1.6649    0.0020 H   0  0  0
   -0.4185    1.6511   -0.8695 H   0  0  0
    0.8486   -0.4776   -0.0086 H   0  0  0
   -4.5778   -2.4504    0.0319 H   0  0  0
   -3.4294   -4.7054    0.0204 H   0  0  0
   -1.3444   -5.9720    0.0034 H   0  0  0
    0.8267   -4.8249   -0.0107 H   0  0  0
    0.9556   -2.3883   -0.0071 H   0  0  0
  1  2  1  0
  1 13  1  0
  1 14  1  0
  2  3  1  0
  2 15  1  0
  3 12  4  0
  3  4  4  0
  4  5  4  0
  5  6  4  0
  6  7  4  0
  6 16  1  0
  7 12  4  0
  7  8  4  0
  8  9  4  0
  8 17  1  0
  9 10  4  0
  9 18  1  0
 10 11  4  0
 10 19  1  0
 11 12  4  0
 11 20  1  0
M  END
$$$$
