CCOC(=O)Nc1ccc2Sc3ccccc3N(C(=O)CCN4CCOCC4)c2c1
CHcorina  02210111253D 1   1.00000     0.00000     0
CORINA evaluation copy  2.4  150  11.12.1900 (2001-3)
 55 58  0  0  0  0              1 V2000
    0.2065    1.0385   -1.6092 C   0  0  0
    0.0042   -0.4712   -1.7530 C   0  0  0
   -1.2386   -0.8566   -1.1087 O   0  0  0
   -1.6255   -2.1464   -1.1091 C   0  0  0
   -0.9346   -2.9878   -1.6487 O   0  0  0
   -2.7792   -2.5040   -0.5111 N   0  0  0
   -3.1154   -3.8594   -0.3910 C   0  0  0
   -2.1162   -4.8173   -0.2833 C   0  0  0
   -2.4497   -6.1510   -0.1646 C   0  0  0
   -3.7848   -6.5475   -0.1514 C   0  0  0
   -4.1572   -8.2583    0.0037 S   0  0  0
   -5.8031   -8.3212   -0.6091 C   0  0  0
   -6.3131   -9.5437   -1.0399 C   0  0  0
   -7.6015   -9.6302   -1.5276 C   0  0  0
   -8.3949   -8.4997   -1.5916 C   0  0  0
   -7.8989   -7.2827   -1.1661 C   0  0  0
   -6.6020   -7.1865   -0.6727 C   0  0  0
   -6.1376   -5.9389   -0.2518 N   0  0  0
   -7.0345   -5.0305    0.1805 C   0  0  0
   -8.1324   -4.9704   -0.3323 O   0  0  0
   -6.6737   -4.0895    1.3009 C   0  0  0
   -7.8791   -3.2086    1.6354 C   0  0  0
   -7.5274   -2.2913    2.7275 N   0  0  0
   -7.3031   -3.1202    3.9192 C   0  0  0
   -7.1015   -2.2191    5.1382 C   0  0  0
   -8.2860   -1.4591    5.3768 O   0  0  0
   -8.4841   -0.6192    4.2397 C   0  0  0
   -8.7212   -1.4793    2.9977 C   0  0  0
   -4.7856   -5.5901   -0.2597 C   0  0  0
   -4.4469   -4.2462   -0.3737 C   0  0  0
    1.1395    1.3278   -2.0929 H   0  0  0
   -0.6248    1.5630   -2.0804 H   0  0  0
    0.2489    1.3003   -0.5520 H   0  0  0
   -0.0382   -0.7331   -2.8102 H   0  0  0
    0.8355   -0.9957   -1.2819 H   0  0  0
   -3.3768   -1.8235   -0.1638 H   0  0  0
   -1.0784   -4.5187   -0.2927 H   0  0  0
   -1.6694   -6.8931   -0.0817 H   0  0  0
   -5.6966  -10.4292   -0.9923 H   0  0  0
   -7.9899  -10.5816   -1.8598 H   0  0  0
   -9.4024   -8.5680   -1.9746 H   0  0  0
   -8.5212   -6.4015   -1.2168 H   0  0  0
   -6.3889   -4.6653    2.1816 H   0  0  0
   -5.8386   -3.4606    0.9924 H   0  0  0
   -8.1638   -2.6328    0.7547 H   0  0  0
   -8.7142   -3.8376    1.9439 H   0  0  0
   -8.1679   -3.7635    4.0822 H   0  0  0
   -6.4156   -3.7356    3.7718 H   0  0  0
   -6.8832   -2.8339    6.0114 H   0  0  0
   -6.2672   -1.5421    4.9546 H   0  0  0
   -9.3501    0.0209    4.4082 H   0  0  0
   -7.6002    0.0004    4.0883 H   0  0  0
   -8.9228   -0.8343    2.1424 H   0  0  0
   -9.5754   -2.1346    3.1674 H   0  0  0
   -5.2244   -3.5008   -0.4530 H   0  0  0
  1  2  1  0
  1 31  1  0
  1 32  1  0
  1 33  1  0
  2  3  1  0
  2 34  1  0
  2 35  1  0
  3  4  1  0
  4  5  2  0
  4  6  1  0
  6  7  1  0
  6 36  1  0
  7 30  4  0
  7  8  4  0
  8  9  4  0
  8 37  1  0
  9 10  4  0
  9 38  1  0
 10 29  4  0
 10 11  1  0
 11 12  1  0
 12 17  4  0
 12 13  4  0
 13 14  4  0
 13 39  1  0
 14 15  4  0
 14 40  1  0
 15 16  4  0
 15 41  1  0
 16 17  4  0
 16 42  1  0
 17 18  1  0
 18 19  1  0
 18 29  1  0
 19 20  2  0
 19 21  1  0
 21 22  1  0
 21 43  1  0
 21 44  1  0
 22 23  1  0
 22 45  1  0
 22 46  1  0
 23 28  1  0
 23 24  1  0
 24 25  1  0
 24 47  1  0
 24 48  1  0
 25 26  1  0
 25 49  1  0
 25 50  1  0
 26 27  1  0
 27 28  1  0
 27 51  1  0
 27 52  1  0
 28 53  1  0
 28 54  1  0
 29 30  4  0
 30 55  1  0
M  END
$$$$
CCOC(=O)Nc1ccc2Sc3ccccc3N(C(=O)CCN4CCOCC4)c2c1
CHcorina  02210111253D 1   1.00000     3.00000     0
CORINA evaluation copy  2.4  150  11.12.1900 (2001-3)
 55 58  0  0  0  0              1 V2000
   -0.2809    1.5985   -1.0521 C   0  0  0
   -0.3033    0.0760   -1.2010 C   0  0  0
   -1.5033   -0.4536   -0.5782 O   0  0  0
   -1.7371   -1.7797   -0.5866 C   0  0  0
   -0.9438   -2.5332   -1.1155 O   0  0  0
   -2.8509   -2.2713   -0.0084 N   0  0  0
   -3.0344   -3.6571    0.0933 C   0  0  0
   -1.9423   -4.4909    0.2925 C   0  0  0
   -2.1254   -5.8549    0.3913 C   0  0  0
   -3.4008   -6.4061    0.2937 C   0  0  0
   -3.5806   -8.1496    0.4247 S   0  0  0
   -5.2823   -8.3019    0.8360 C   0  0  0
   -5.7274   -9.4816    1.4279 C   0  0  0
   -7.0570   -9.6355    1.7652 C   0  0  0
   -7.9571   -8.6161    1.5158 C   0  0  0
   -7.5259   -7.4426    0.9284 C   0  0  0
   -6.1881   -7.2788    0.5852 C   0  0  0
   -5.7923   -6.0784   -0.0076 N   0  0  0
   -6.7034   -5.3759   -0.7097 C   0  0  0
   -7.8652   -5.3697   -0.3603 O   0  0  0
   -6.2790   -4.5980   -1.9286 C   0  0  0
   -7.4704   -3.8030   -2.4666 C   0  0  0
   -7.0567   -3.0448   -3.6549 N   0  0  0
   -6.8761   -4.0215   -4.7370 C   0  0  0
   -8.1529   -4.8474   -4.8987 C   0  0  0
   -9.2323   -3.9958   -5.2825 O   0  0  0
   -9.4409   -3.0722   -4.2144 C   0  0  0
   -8.1971   -2.2007   -4.0352 C   0  0  0
   -4.4945   -5.5728    0.0959 C   0  0  0
   -4.3078   -4.1982    0.0010 C   0  0  0
    0.6199    1.9961   -1.5197 H   0  0  0
   -1.1598    2.0240   -1.5365 H   0  0  0
   -0.2868    1.8602    0.0060 H   0  0  0
   -0.2974   -0.1857   -2.2591 H   0  0  0
    0.5756   -0.3495   -0.7166 H   0  0  0
   -3.5255   -1.6661    0.3372 H   0  0  0
   -0.9499   -4.0720    0.3697 H   0  0  0
   -1.2732   -6.5001    0.5459 H   0  0  0
   -5.0278  -10.2806    1.6246 H   0  0  0
   -7.3945  -10.5531    2.2240 H   0  0  0
   -8.9973   -8.7375    1.7797 H   0  0  0
   -8.2314   -6.6482    0.7345 H   0  0  0
   -5.4757   -3.9119   -1.6603 H   0  0  0
   -5.9266   -5.2880   -2.6954 H   0  0  0
   -8.2737   -4.4892   -2.7350 H   0  0  0
   -7.8228   -3.1131   -1.6999 H   0  0  0
   -6.6628   -3.4965   -5.6682 H   0  0  0
   -6.0442   -4.6827   -4.4944 H   0  0  0
   -7.9992   -5.6062   -5.6660 H   0  0  0
   -8.3929   -5.3329   -3.9527 H   0  0  0
  -10.2973   -2.4387   -4.4449 H   0  0  0
   -9.6347   -3.6213   -3.2929 H   0  0  0
   -8.3798   -1.4635   -3.2534 H   0  0  0
   -7.9741   -1.6893   -4.9715 H   0  0  0
   -5.1579   -3.5494   -0.1498 H   0  0  0
  1  2  1  0
  1 31  1  0
  1 32  1  0
  1 33  1  0
  2  3  1  0
  2 34  1  0
  2 35  1  0
  3  4  1  0
  4  5  2  0
  4  6  1  0
  6  7  1  0
  6 36  1  0
  7 30  4  0
  7  8  4  0
  8  9  4  0
  8 37  1  0
  9 10  4  0
  9 38  1  0
 10 29  4  0
 10 11  1  0
 11 12  1  0
 12 17  4  0
 12 13  4  0
 13 14  4  0
 13 39  1  0
 14 15  4  0
 14 40  1  0
 15 16  4  0
 15 41  1  0
 16 17  4  0
 16 42  1  0
 17 18  1  0
 18 19  1  0
 18 29  1  0
 19 20  2  0
 19 21  1  0
 21 22  1  0
 21 43  1  0
 21 44  1  0
 22 23  1  0
 22 45  1  0
 22 46  1  0
 23 28  1  0
 23 24  1  0
 24 25  1  0
 24 47  1  0
 24 48  1  0
 25 26  1  0
 25 49  1  0
 25 50  1  0
 26 27  1  0
 27 28  1  0
 27 51  1  0
 27 52  1  0
 28 53  1  0
 28 54  1  0
 29 30  4  0
 30 55  1  0
M  END
$$$$
CCOC(=O)Nc1ccc2Sc3ccccc3N(C(=O)CCN4CCOCC4)c2c1
CHcorina  02210111253D 1   1.00000    41.00000     0
CORINA evaluation copy  2.4  150  11.12.1900 (2001-3)
 55 58  0  0  0  0              1 V2000
   -7.6184    3.1537    3.9178 C   0  0  0
   -7.2913    2.6854    2.4984 C   0  0  0
   -6.9340    1.2783    2.5232 O   0  0  0
   -6.6052    0.6468    1.3802 C   0  0  0
   -6.6077    1.2546    0.3280 O   0  0  0
   -6.2736   -0.6593    1.4033 N   0  0  0
   -5.8187   -1.2875    0.2359 C   0  0  0
   -5.0710   -0.5637   -0.6829 C   0  0  0
   -4.6214   -1.1871   -1.8381 C   0  0  0
   -4.9257   -2.5075   -2.0486 C   0  0  0
   -4.3903   -3.3834   -3.5007 S   0  0  0
   -4.9316   -5.0769   -3.5034 C   0  0  0
   -4.6340   -5.9393   -4.5272 C   0  0  0
   -5.0900   -7.2487   -4.4623 C   0  0  0
   -5.8332   -7.6574   -3.3704 C   0  0  0
   -6.1310   -6.7853   -2.3417 C   0  0  0
   -5.6843   -5.4674   -2.3864 C   0  0  0
   -5.9877   -4.5973   -1.3500 N   0  0  0
   -6.7186   -5.1539   -0.3639 C   0  0  0
   -6.2342   -5.3068    0.7379 O   0  0  0
   -8.1375   -5.5864   -0.6298 C   0  0  0
   -9.0325   -4.3516   -0.7526 C   0  0  0
  -10.3951   -4.7681   -1.1101 N   0  0  0
  -10.3151   -5.3710   -2.4487 C   0  0  0
  -10.2979   -4.2610   -3.5008 C   0  0  0
  -11.6034   -3.7036   -3.6418 O   0  0  0
  -12.2304   -3.7440   -2.3610 C   0  0  0
  -11.1866   -3.5384   -1.2622 C   0  0  0
   -5.6792   -3.2619   -1.1378 C   0  0  0
   -6.1176   -2.6238    0.0190 C   0  0  0
   -7.8866    4.2100    3.8992 H   0  0  0
   -8.4544    2.5733    4.3082 H   0  0  0
   -6.7472    3.0113    4.5572 H   0  0  0
   -8.1624    2.8278    1.8590 H   0  0  0
   -6.4553    3.2658    2.1080 H   0  0  0
   -6.3497   -1.1645    2.2278 H   0  0  0
   -4.8414    0.4757   -0.5003 H   0  0  0
   -4.0389   -0.6385   -2.5634 H   0  0  0
   -4.0525   -5.6040   -5.3732 H   0  0  0
   -4.8663   -7.9429   -5.2588 H   0  0  0
   -6.1874   -8.6764   -3.3212 H   0  0  0
   -6.7139   -7.1270   -1.4991 H   0  0  0
   -8.1756   -6.1566   -1.5580 H   0  0  0
   -8.4880   -6.2088    0.1935 H   0  0  0
   -9.0527   -3.8214    0.1995 H   0  0  0
   -8.6389   -3.6931   -1.5270 H   0  0  0
   -9.4026   -5.9618   -2.5279 H   0  0  0
  -11.1808   -6.0130   -2.6111 H   0  0  0
   -9.6027   -3.4804   -3.1918 H   0  0  0
   -9.9755   -4.6736   -4.4568 H   0  0  0
  -12.9799   -2.9549   -2.3002 H   0  0  0
  -12.7131   -4.7117   -2.2250 H   0  0  0
  -11.6881   -3.3097   -0.3219 H   0  0  0
  -10.5285   -2.7134   -1.5349 H   0  0  0
   -6.6967   -3.1707    0.7483 H   0  0  0
  1  2  1  0
  1 31  1  0
  1 32  1  0
  1 33  1  0
  2  3  1  0
  2 34  1  0
  2 35  1  0
  3  4  1  0
  4  5  2  0
  4  6  1  0
  6  7  1  0
  6 36  1  0
  7 30  4  0
  7  8  4  0
  8  9  4  0
  8 37  1  0
  9 10  4  0
  9 38  1  0
 10 29  4  0
 10 11  1  0
 11 12  1  0
 12 17  4  0
 12 13  4  0
 13 14  4  0
 13 39  1  0
 14 15  4  0
 14 40  1  0
 15 16  4  0
 15 41  1  0
 16 17  4  0
 16 42  1  0
 17 18  1  0
 18 19  1  0
 18 29  1  0
 19 20  2  0
 19 21  1  0
 21 22  1  0
 21 43  1  0
 21 44  1  0
 22 23  1  0
 22 45  1  0
 22 46  1  0
 23 28  1  0
 23 24  1  0
 24 25  1  0
 24 47  1  0
 24 48  1  0
 25 26  1  0
 25 49  1  0
 25 50  1  0
 26 27  1  0
 27 28  1  0
 27 51  1  0
 27 52  1  0
 28 53  1  0
 28 54  1  0
 29 30  4  0
 30 55  1  0
M  END
$$$$
