OC(=O)C1CCn2c(ccc12)C(=O)c3ccccc3
CHcorina  02210111263D 1   1.00000     0.00000     0
CORINA evaluation copy  2.4  150  11.12.1900 (2001-3)
 32 34  0  0  0  0              1 V2000
   -0.6363    1.3596    0.5328 O   0  0  0
   -0.4607    0.0389    0.3702 C   0  0  0
    0.6481   -0.4052    0.1881 O   0  0  0
   -1.6465   -0.8901    0.4148 C   0  0  0
   -2.5970   -0.6105   -0.7707 C   0  0  0
   -3.0958   -2.0289   -1.1185 C   0  0  0
   -2.0354   -2.9438   -0.6639 N   0  0  0
   -1.6012   -4.2451   -0.8341 C   0  0  0
   -0.4834   -4.4188   -0.0437 C   0  0  0
   -0.2468   -3.2058    0.6043 C   0  0  0
   -1.2040   -2.3253    0.2075 C   0  0  0
   -2.2164   -5.2564   -1.6966 C   0  0  0
   -3.1225   -4.9460   -2.4478 O   0  0  0
   -1.7367   -6.6547   -1.6548 C   0  0  0
   -1.2566   -7.1960   -0.4606 C   0  0  0
   -0.8112   -8.5009   -0.4284 C   0  0  0
   -0.8393   -9.2734   -1.5764 C   0  0  0
   -1.3133   -8.7431   -2.7631 C   0  0  0
   -1.7672   -7.4410   -2.8078 C   0  0  0
    0.1246    1.9557    0.5042 H   0  0  0
   -2.1751   -0.7871    1.3625 H   0  0  0
   -3.4245    0.0294   -0.4643 H   0  0  0
   -2.0561   -0.1711   -1.6088 H   0  0  0
   -4.0269   -2.2404   -0.5926 H   0  0  0
   -3.2400   -2.1243   -2.1947 H   0  0  0
    0.0983   -5.3234    0.0552 H   0  0  0
    0.5552   -3.0023    1.2984 H   0  0  0
   -1.2338   -6.5941    0.4359 H   0  0  0
   -0.4393   -8.9207    0.4945 H   0  0  0
   -0.4894  -10.2947   -1.5458 H   0  0  0
   -1.3319   -9.3511   -3.6555 H   0  0  0
   -2.1373   -7.0284   -3.7347 H   0  0  0
  1  2  1  0
  1 20  1  0
  2  3  2  0
  2  4  1  0
  4 11  1  0
  4  5  1  0
  4 21  1  0
  5  6  1  0
  5 22  1  0
  5 23  1  0
  6  7  1  0
  6 24  1  0
  6 25  1  0
  7 11  4  0
  7  8  4  0
  8  9  4  0
  8 12  1  0
  9 10  4  0
  9 26  1  0
 10 11  4  0
 10 27  1  0
 12 13  2  0
 12 14  1  0
 14 19  4  0
 14 15  4  0
 15 16  4  0
 15 28  1  0
 16 17  4  0
 16 29  1  0
 17 18  4  0
 17 30  1  0
 18 19  4  0
 18 31  1  0
 19 32  1  0
M  END
$$$$
OC(=O)C1CCn2c(ccc12)C(=O)c3ccccc3
CHcorina  02210111263D 1   1.00000     0.00000     0
CORINA evaluation copy  2.4  150  11.12.1900 (2001-3)
 32 34  0  0  0  0              1 V2000
    0.0512    1.3617   -0.0872 O   0  0  0
    0.0865    0.0199   -0.0907 C   0  0  0
    1.1455   -0.5563   -0.1702 O   0  0  0
   -1.1947   -0.7678    0.0044 C   0  0  0
   -2.0694   -0.5314   -1.2470 C   0  0  0
   -1.6442   -1.7032   -2.1569 C   0  0  0
   -1.1710   -2.7594   -1.2466 N   0  0  0
   -0.9030   -4.1155   -1.2308 C   0  0  0
   -0.4614   -4.4388    0.0360 C   0  0  0
   -0.4679   -3.2617    0.7854 C   0  0  0
   -0.9058   -2.2560   -0.0181 C   0  0  0
   -1.0598   -5.0414   -2.3547 C   0  0  0
   -1.3467   -4.6158   -3.4585 O   0  0  0
   -0.8696   -6.4934   -2.1486 C   0  0  0
   -1.1217   -7.0633   -0.8991 C   0  0  0
   -0.9428   -8.4182   -0.7138 C   0  0  0
   -0.5144   -9.2126   -1.7629 C   0  0  0
   -0.2624   -8.6543   -3.0035 C   0  0  0
   -0.4429   -7.3013   -3.2040 C   0  0  0
    0.8733    1.8672   -0.1482 H   0  0  0
   -1.7408   -0.4987    0.9086 H   0  0  0
   -3.1290   -0.5945   -0.9997 H   0  0  0
   -1.8356    0.4269   -1.7107 H   0  0  0
   -2.4960   -2.0587   -2.7366 H   0  0  0
   -0.8395   -1.3909   -2.8226 H   0  0  0
   -0.1668   -5.4185    0.3823 H   0  0  0
   -0.1766   -3.1664    1.8210 H   0  0  0
   -1.4557   -6.4444   -0.0794 H   0  0  0
   -1.1371   -8.8602    0.2523 H   0  0  0
   -0.3759  -10.2731   -1.6125 H   0  0  0
    0.0724   -9.2798   -3.8178 H   0  0  0
   -0.2462   -6.8668   -4.1729 H   0  0  0
  1  2  1  0
  1 20  1  0
  2  3  2  0
  2  4  1  0
  4 11  1  0
  4  5  1  0
  4 21  1  0
  5  6  1  0
  5 22  1  0
  5 23  1  0
  6  7  1  0
  6 24  1  0
  6 25  1  0
  7 11  4  0
  7  8  4  0
  8  9  4  0
  8 12  1  0
  9 10  4  0
  9 26  1  0
 10 11  4  0
 10 27  1  0
 12 13  2  0
 12 14  1  0
 14 19  4  0
 14 15  4  0
 15 16  4  0
 15 28  1  0
 16 17  4  0
 16 29  1  0
 17 18  4  0
 17 30  1  0
 18 19  4  0
 18 31  1  0
 19 32  1  0
M  END
$$$$
OC(=O)C1CCn2c(ccc12)C(=O)c3ccccc3
CHcorina  02210111263D 1   1.00000    63.00000     0
CORINA evaluation copy  2.4  150  11.12.1900 (2001-3)
 32 34  0  0  0  0              1 V2000
   -0.6137    1.3343    0.3493 O   0  0  0
   -0.4709    0.0053    0.2272 C   0  0  0
    0.5883   -0.4589   -0.1229 O   0  0  0
   -1.6316   -0.9080    0.5268 C   0  0  0
   -2.7812   -0.6440   -0.4576 C   0  0  0
   -2.9703   -1.9810   -1.1865 C   0  0  0
   -1.9865   -2.9236   -0.6384 N   0  0  0
   -1.5798   -4.2389   -0.7921 C   0  0  0
   -0.5487   -4.4625    0.0962 C   0  0  0
   -0.3373   -3.2695    0.7872 C   0  0  0
   -1.2276   -2.3504    0.3184 C   0  0  0
   -2.1431   -5.2151   -1.7275 C   0  0  0
   -2.9734   -4.8650   -2.5458 O   0  0  0
   -1.7031   -6.6261   -1.6777 C   0  0  0
   -1.2720   -7.1841   -0.4725 C   0  0  0
   -0.8634   -8.5008   -0.4329 C   0  0  0
   -0.8800   -9.2686   -1.5842 C   0  0  0
   -1.3055   -8.7218   -2.7817 C   0  0  0
   -1.7223   -7.4077   -2.8341 C   0  0  0
    0.1311    1.9204    0.1571 H   0  0  0
   -1.9728   -0.7575    1.5511 H   0  0  0
   -3.6891   -0.3705    0.0801 H   0  0  0
   -2.5072    0.1402   -1.1632 H   0  0  0
   -3.9791   -2.3570   -1.0158 H   0  0  0
   -2.8012   -1.8480   -2.2550 H   0  0  0
   -0.0074   -5.3872    0.2317 H   0  0  0
    0.4013   -3.1035    1.5575 H   0  0  0
   -1.2582   -6.5859    0.4266 H   0  0  0
   -0.5294   -8.9335    0.4986 H   0  0  0
   -0.5590  -10.2992   -1.5477 H   0  0  0
   -1.3154   -9.3263   -3.6767 H   0  0  0
   -2.0547   -6.9821   -3.7694 H   0  0  0
  1  2  1  0
  1 20  1  0
  2  3  2  0
  2  4  1  0
  4 11  1  0
  4  5  1  0
  4 21  1  0
  5  6  1  0
  5 22  1  0
  5 23  1  0
  6  7  1  0
  6 24  1  0
  6 25  1  0
  7 11  4  0
  7  8  4  0
  8  9  4  0
  8 12  1  0
  9 10  4  0
  9 26  1  0
 10 11  4  0
 10 27  1  0
 12 13  2  0
 12 14  1  0
 14 19  4  0
 14 15  4  0
 15 16  4  0
 15 28  1  0
 16 17  4  0
 16 29  1  0
 17 18  4  0
 17 30  1  0
 18 19  4  0
 18 31  1  0
 19 32  1  0
M  END
$$$$
