COc1ccc(Cl)cc1C(=O)NCCc2ccc(cc2)S(=O)(=O)NC(=O)NC3CCCCC3
CHcorina  02210111253D 1   1.00000     0.00000     0
CORINA evaluation copy  2.4  150  11.12.1900 (2001-3)
 61 63  0  0  0  0              1 V2000
   -0.0173    1.4248    0.0099 C   0  0  0
    0.0021   -0.0041    0.0020 O   0  0  0
   -1.2913   -0.4138    0.0122 C   0  0  0
   -2.3173    0.5193    0.0212 C   0  0  0
   -3.6331    0.1015    0.0316 C   0  0  0
   -3.9393   -1.2507    0.0330 C   0  0  0
   -5.5985   -1.7612    0.0456 Cl  0  0  0
   -2.9314   -2.1917    0.0241 C   0  0  0
   -1.5960   -1.7816    0.0077 C   0  0  0
   -0.5125   -2.7829   -0.0019 C   0  0  0
    0.6486   -2.4222   -0.0161 O   0  0  0
   -0.8097   -4.0974    0.0051 N   0  0  0
    0.2662   -5.0917   -0.0045 C   0  0  0
   -0.3382   -6.4973    0.0063 C   0  0  0
    0.7685   -7.5201   -0.0035 C   0  0  0
    1.2664   -7.9883   -1.2053 C   0  0  0
    2.2814   -8.9264   -1.2144 C   0  0  0
    2.7992   -9.3961   -0.0216 C   0  0  0
    2.3021   -8.9273    1.1799 C   0  0  0
    1.2897   -7.9858    1.1889 C   0  0  0
    4.0924  -10.5929   -0.0331 S   0  0  0
    4.0298  -11.2411    1.2299 O   0  0  0
    4.0078  -11.2406   -1.2950 O   0  0  0
    5.5290   -9.7693   -0.0454 N   0  0  0
    5.8321   -8.9280    0.9630 C   0  0  0
    5.0509   -8.7738    1.8818 O   0  0  0
    7.0014   -8.2577    0.9529 N   0  0  0
    7.3309   -7.3433    2.0490 C   0  0  0
    8.0732   -8.1089    3.1462 C   0  0  0
    8.4173   -7.1538    4.2910 C   0  0  0
    9.3074   -6.0263    3.7643 C   0  0  0
    8.5651   -5.2607    2.6672 C   0  0  0
    8.2210   -6.2158    1.5224 C   0  0  0
    1.0053    1.8021    0.0021 H   0  0  0
   -0.5445    1.7859   -0.8732 H   0  0  0
   -0.5275    1.7763    0.9067 H   0  0  0
   -2.0867    1.5744    0.0206 H   0  0  0
   -4.4284    0.8321    0.0390 H   0  0  0
   -3.1740   -3.2441    0.0256 H   0  0  0
   -1.7360   -4.3852    0.0165 H   0  0  0
    0.8715   -4.9634   -0.9018 H   0  0  0
    0.8919   -4.9585    0.8781 H   0  0  0
   -0.9436   -6.6256    0.9036 H   0  0  0
   -0.9639   -6.6305   -0.8762 H   0  0  0
    0.8619   -7.6214   -2.1371 H   0  0  0
    2.6698   -9.2927   -2.1531 H   0  0  0
    2.7063   -9.2945    2.1116 H   0  0  0
    0.9013   -7.6195    2.1277 H   0  0  0
    6.1523   -9.8923   -0.7784 H   0  0  0
    7.6247   -8.3807    0.2200 H   0  0  0
    6.4132   -6.9208    2.4581 H   0  0  0
    7.4391   -8.9122    3.5214 H   0  0  0
    8.9910   -8.5313    2.7372 H   0  0  0
    7.4995   -6.7313    4.7000 H   0  0  0
    8.9461   -7.6993    5.0726 H   0  0  0
    9.5526   -5.3460    4.5799 H   0  0  0
   10.2252   -6.4488    3.3553 H   0  0  0
    7.6473   -4.8383    3.0762 H   0  0  0
    9.1992   -4.4574    2.2920 H   0  0  0
    9.1388   -6.6383    1.1134 H   0  0  0
    7.6922   -5.6704    0.7408 H   0  0  0
  1  2  1  0
  1 34  1  0
  1 35  1  0
  1 36  1  0
  2  3  1  0
  3  9  4  0
  3  4  4  0
  4  5  4  0
  4 37  1  0
  5  6  4  0
  5 38  1  0
  6  7  1  0
  6  8  4  0
  8  9  4  0
  8 39  1  0
  9 10  1  0
 10 11  2  0
 10 12  1  0
 12 13  1  0
 12 40  1  0
 13 14  1  0
 13 41  1  0
 13 42  1  0
 14 15  1  0
 14 43  1  0
 14 44  1  0
 15 20  4  0
 15 16  4  0
 16 17  4  0
 16 45  1  0
 17 18  4  0
 17 46  1  0
 18 19  4  0
 18 21  1  0
 19 20  4  0
 19 47  1  0
 20 48  1  0
 21 22  2  0
 21 23  2  0
 21 24  1  0
 24 25  1  0
 24 49  1  0
 25 26  2  0
 25 27  1  0
 27 28  1  0
 27 50  1  0
 28 33  1  0
 28 29  1  0
 28 51  1  0
 29 30  1  0
 29 52  1  0
 29 53  1  0
 30 31  1  0
 30 54  1  0
 30 55  1  0
 31 32  1  0
 31 56  1  0
 31 57  1  0
 32 33  1  0
 32 58  1  0
 32 59  1  0
 33 60  1  0
 33 61  1  0
M  END
$$$$
COc1ccc(Cl)cc1C(=O)NCCc2ccc(cc2)S(=O)(=O)NC(=O)NC3CCCCC3
CHcorina  02210111253D 1   1.00000     2.00000     0
CORINA evaluation copy  2.4  150  11.12.1900 (2001-3)
 61 63  0  0  0  0              1 V2000
   -0.0173    1.4248    0.0099 C   0  0  0
    0.0021   -0.0041    0.0020 O   0  0  0
   -1.2913   -0.4138    0.0122 C   0  0  0
   -2.3173    0.5193    0.0212 C   0  0  0
   -3.6331    0.1015    0.0316 C   0  0  0
   -3.9393   -1.2507    0.0330 C   0  0  0
   -5.5985   -1.7612    0.0456 Cl  0  0  0
   -2.9314   -2.1917    0.0241 C   0  0  0
   -1.5960   -1.7816    0.0077 C   0  0  0
   -0.5125   -2.7829   -0.0019 C   0  0  0
    0.6486   -2.4222   -0.0161 O   0  0  0
   -0.8097   -4.0974    0.0051 N   0  0  0
    0.2662   -5.0917   -0.0045 C   0  0  0
   -0.3382   -6.4973    0.0063 C   0  0  0
    0.7685   -7.5201   -0.0035 C   0  0  0
    1.2664   -7.9883   -1.2053 C   0  0  0
    2.2814   -8.9264   -1.2144 C   0  0  0
    2.7992   -9.3961   -0.0216 C   0  0  0
    2.3021   -8.9273    1.1799 C   0  0  0
    1.2897   -7.9858    1.1889 C   0  0  0
    4.0924  -10.5929   -0.0331 S   0  0  0
    4.0298  -11.2411    1.2299 O   0  0  0
    4.0078  -11.2406   -1.2950 O   0  0  0
    5.5290   -9.7693   -0.0454 N   0  0  0
    5.8321   -8.9280    0.9630 C   0  0  0
    5.0509   -8.7738    1.8818 O   0  0  0
    7.0014   -8.2577    0.9529 N   0  0  0
    7.3309   -7.3433    2.0490 C   0  0  0
    8.0732   -8.1089    3.1462 C   0  0  0
    9.3614   -8.7020    2.5720 C   0  0  0
   10.2515   -7.5744    2.0454 C   0  0  0
    9.5092   -6.8089    0.9482 C   0  0  0
    8.2210   -6.2158    1.5224 C   0  0  0
    1.0053    1.8021    0.0021 H   0  0  0
   -0.5445    1.7859   -0.8732 H   0  0  0
   -0.5275    1.7763    0.9067 H   0  0  0
   -2.0867    1.5744    0.0206 H   0  0  0
   -4.4284    0.8321    0.0390 H   0  0  0
   -3.1740   -3.2441    0.0256 H   0  0  0
   -1.7360   -4.3852    0.0165 H   0  0  0
    0.8715   -4.9634   -0.9018 H   0  0  0
    0.8919   -4.9585    0.8781 H   0  0  0
   -0.9436   -6.6256    0.9036 H   0  0  0
   -0.9639   -6.6305   -0.8762 H   0  0  0
    0.8619   -7.6214   -2.1371 H   0  0  0
    2.6698   -9.2927   -2.1531 H   0  0  0
    2.7063   -9.2945    2.1116 H   0  0  0
    0.9013   -7.6195    2.1277 H   0  0  0
    6.1523   -9.8923   -0.7784 H   0  0  0
    7.6247   -8.3807    0.2200 H   0  0  0
    6.4132   -6.9208    2.4581 H   0  0  0
    8.3184   -7.4285    3.9617 H   0  0  0
    7.4391   -8.9121    3.5214 H   0  0  0
    9.8902   -9.2474    3.3536 H   0  0  0
    9.1162   -9.3823    1.7564 H   0  0  0
   10.4967   -6.8941    2.8609 H   0  0  0
   11.1692   -7.9970    1.6363 H   0  0  0
   10.1433   -6.0056    0.5730 H   0  0  0
    9.2640   -7.4892    0.1327 H   0  0  0
    7.6922   -5.6703    0.7408 H   0  0  0
    8.4662   -5.5354    2.3380 H   0  0  0
  1  2  1  0
  1 34  1  0
  1 35  1  0
  1 36  1  0
  2  3  1  0
  3  9  4  0
  3  4  4  0
  4  5  4  0
  4 37  1  0
  5  6  4  0
  5 38  1  0
  6  7  1  0
  6  8  4  0
  8  9  4  0
  8 39  1  0
  9 10  1  0
 10 11  2  0
 10 12  1  0
 12 13  1  0
 12 40  1  0
 13 14  1  0
 13 41  1  0
 13 42  1  0
 14 15  1  0
 14 43  1  0
 14 44  1  0
 15 20  4  0
 15 16  4  0
 16 17  4  0
 16 45  1  0
 17 18  4  0
 17 46  1  0
 18 19  4  0
 18 21  1  0
 19 20  4  0
 19 47  1  0
 20 48  1  0
 21 22  2  0
 21 23  2  0
 21 24  1  0
 24 25  1  0
 24 49  1  0
 25 26  2  0
 25 27  1  0
 27 28  1  0
 27 50  1  0
 28 33  1  0
 28 29  1  0
 28 51  1  0
 29 30  1  0
 29 52  1  0
 29 53  1  0
 30 31  1  0
 30 54  1  0
 30 55  1  0
 31 32  1  0
 31 56  1  0
 31 57  1  0
 32 33  1  0
 32 58  1  0
 32 59  1  0
 33 60  1  0
 33 61  1  0
M  END
$$$$
COc1ccc(Cl)cc1C(=O)NCCc2ccc(cc2)S(=O)(=O)NC(=O)NC3CCCCC3
CHcorina  02210111253D 1   1.00000    23.00000     0
CORINA evaluation copy  2.4  150  11.12.1900 (2001-3)
 61 63  0  0  0  0              1 V2000
   -0.0173    1.4248    0.0099 C   0  0  0
    0.0021   -0.0041    0.0020 O   0  0  0
   -1.2913   -0.4138    0.0122 C   0  0  0
   -2.3173    0.5193    0.0212 C   0  0  0
   -3.6331    0.1015    0.0316 C   0  0  0
   -3.9393   -1.2507    0.0330 C   0  0  0
   -5.5985   -1.7612    0.0456 Cl  0  0  0
   -2.9314   -2.1917    0.0241 C   0  0  0
   -1.5960   -1.7816    0.0077 C   0  0  0
   -0.5125   -2.7829   -0.0019 C   0  0  0
    0.6486   -2.4222   -0.0161 O   0  0  0
   -0.8097   -4.0974    0.0051 N   0  0  0
    0.2662   -5.0917   -0.0045 C   0  0  0
   -0.3382   -6.4973    0.0063 C   0  0  0
    0.7685   -7.5201   -0.0035 C   0  0  0
    1.2664   -7.9883   -1.2053 C   0  0  0
    2.2814   -8.9264   -1.2144 C   0  0  0
    2.7992   -9.3961   -0.0216 C   0  0  0
    2.3021   -8.9273    1.1799 C   0  0  0
    1.2897   -7.9858    1.1889 C   0  0  0
    4.0924  -10.5929   -0.0331 S   0  0  0
    4.0298  -11.2411    1.2299 O   0  0  0
    4.0078  -11.2406   -1.2950 O   0  0  0
    5.5290   -9.7693   -0.0454 N   0  0  0
    5.8321   -8.9280    0.9630 C   0  0  0
    5.0509   -8.7738    1.8818 O   0  0  0
    7.0014   -8.2577    0.9529 N   0  0  0
    7.3309   -7.3433    2.0490 C   0  0  0
    8.0725   -8.1090    3.1464 C   0  0  0
    8.9747   -7.1461    3.9204 C   0  0  0
    8.3178   -5.7657    3.9782 C   0  0  0
    8.3497   -5.1265    2.5887 C   0  0  0
    8.2209   -6.2159    1.5224 C   0  0  0
    1.0053    1.8021    0.0021 H   0  0  0
   -0.5445    1.7859   -0.8732 H   0  0  0
   -0.5275    1.7763    0.9067 H   0  0  0
   -2.0867    1.5744    0.0206 H   0  0  0
   -4.4284    0.8321    0.0390 H   0  0  0
   -3.1740   -3.2441    0.0256 H   0  0  0
   -1.7360   -4.3852    0.0165 H   0  0  0
    0.8715   -4.9634   -0.9018 H   0  0  0
    0.8919   -4.9585    0.8781 H   0  0  0
   -0.9436   -6.6256    0.9036 H   0  0  0
   -0.9639   -6.6305   -0.8762 H   0  0  0
    0.8619   -7.6214   -2.1371 H   0  0  0
    2.6698   -9.2927   -2.1531 H   0  0  0
    2.7063   -9.2945    2.1116 H   0  0  0
    0.9013   -7.6195    2.1277 H   0  0  0
    6.1523   -9.8923   -0.7784 H   0  0  0
    7.6247   -8.3807    0.2200 H   0  0  0
    6.4131   -6.9207    2.4579 H   0  0  0
    7.3499   -8.5573    3.8283 H   0  0  0
    8.6806   -8.8929    2.6948 H   0  0  0
    9.1219   -7.5211    4.9333 H   0  0  0
    9.9390   -7.0688    3.4182 H   0  0  0
    7.2837   -5.8691    4.3069 H   0  0  0
    8.8609   -5.1341    4.6812 H   0  0  0
    7.5214   -4.4245    2.4927 H   0  0  0
    9.2925   -4.5963    2.4543 H   0  0  0
    9.2086   -6.6126    1.2872 H   0  0  0
    7.7759   -5.7922    0.6221 H   0  0  0
  1  2  1  0
  1 34  1  0
  1 35  1  0
  1 36  1  0
  2  3  1  0
  3  9  4  0
  3  4  4  0
  4  5  4  0
  4 37  1  0
  5  6  4  0
  5 38  1  0
  6  7  1  0
  6  8  4  0
  8  9  4  0
  8 39  1  0
  9 10  1  0
 10 11  2  0
 10 12  1  0
 12 13  1  0
 12 40  1  0
 13 14  1  0
 13 41  1  0
 13 42  1  0
 14 15  1  0
 14 43  1  0
 14 44  1  0
 15 20  4  0
 15 16  4  0
 16 17  4  0
 16 45  1  0
 17 18  4  0
 17 46  1  0
 18 19  4  0
 18 21  1  0
 19 20  4  0
 19 47  1  0
 20 48  1  0
 21 22  2  0
 21 23  2  0
 21 24  1  0
 24 25  1  0
 24 49  1  0
 25 26  2  0
 25 27  1  0
 27 28  1  0
 27 50  1  0
 28 33  1  0
 28 29  1  0
 28 51  1  0
 29 30  1  0
 29 52  1  0
 29 53  1  0
 30 31  1  0
 30 54  1  0
 30 55  1  0
 31 32  1  0
 31 56  1  0
 31 57  1  0
 32 33  1  0
 32 58  1  0
 32 59  1  0
 33 60  1  0
 33 61  1  0
M  END
$$$$
