COC(=O)Nc1nc2cc(ccc2[nH]1)C(=O)c3ccccc3
CHcorina  02210111253D 1   1.00000     0.00000     0
CORINA evaluation copy  2.4  150  11.12.1900 (2001-3)
 35 37  0  0  0  0              1 V2000
   -0.0867    1.4866    0.5166 C   0  0  0
   -0.0922    0.0490    0.7202 O   0  0  0
   -1.2224   -0.6548    0.5210 C   0  0  0
   -2.2378   -0.0871    0.1708 O   0  0  0
   -1.2274   -1.9892    0.7100 N   0  0  0
   -2.3894   -2.7129    0.5052 C   0  0  0
   -2.5068   -4.0061    0.6645 N   0  0  0
   -3.7806   -4.3854    0.3788 C   0  0  0
   -4.4368   -5.6144    0.3837 C   0  0  0
   -5.7834   -5.6749    0.0311 C   0  0  0
   -6.4709   -4.5065   -0.3256 C   0  0  0
   -5.8300   -3.3016   -0.3311 C   0  0  0
   -4.4868   -3.2230    0.0180 C   0  0  0
   -3.5848   -2.1818    0.1125 N   0  0  0
   -3.7663   -1.2462   -0.0680 H   0  0  0
   -6.4872   -6.9717    0.0327 C   0  0  0
   -7.6184   -7.0500   -0.4060 O   0  0  0
   -5.8172   -8.1753    0.5675 C   0  0  0
   -4.9523   -8.0701    1.6593 C   0  0  0
   -4.3304   -9.1975    2.1533 C   0  0  0
   -4.5611  -10.4310    1.5695 C   0  0  0
   -5.4165  -10.5425    0.4877 C   0  0  0
   -6.0502   -9.4240   -0.0127 C   0  0  0
    0.9086    1.8793    0.7245 H   0  0  0
   -0.3564    1.7083   -0.5160 H   0  0  0
   -0.8083    1.9515    1.1884 H   0  0  0
   -0.4167   -2.4425    0.9897 H   0  0  0
   -3.9055   -6.5136    0.6585 H   0  0  0
   -7.5146   -4.5602   -0.5983 H   0  0  0
   -6.3679   -2.4067   -0.6073 H   0  0  0
   -4.7709   -7.1081    2.1154 H   0  0  0
   -3.6614   -9.1177    2.9974 H   0  0  0
   -4.0708  -11.3106    1.9599 H   0  0  0
   -5.5918  -11.5080    0.0367 H   0  0  0
   -6.7180   -9.5124   -0.8569 H   0  0  0
  1  2  1  0
  1 24  1  0
  1 25  1  0
  1 26  1  0
  2  3  1  0
  3  4  2  0
  3  5  1  0
  5  6  1  0
  5 27  1  0
  6 14  4  0
  6  7  4  0
  7  8  4  0
  8 13  4  0
  8  9  4  0
  9 10  4  0
  9 28  1  0
 10 11  4  0
 10 16  1  0
 11 12  4  0
 11 29  1  0
 12 13  4  0
 12 30  1  0
 13 14  4  0
 14 15  1  0
 16 17  2  0
 16 18  1  0
 18 23  4  0
 18 19  4  0
 19 20  4  0
 19 31  1  0
 20 21  4  0
 20 32  1  0
 21 22  4  0
 21 33  1  0
 22 23  4  0
 22 34  1  0
 23 35  1  0
M  END
$$$$
