OC(C1CCCCN1)c2cc(nc3c(cccc23)C(F)(F)F)C(F)(F)F
CHcorina  02210111263D 1   1.00000     0.00000     0
CORINA evaluation copy  2.4  150  11.12.1900 (2001-3)
 42 44  0  0  0  0              1 V2000
   -0.0173    1.4248    0.0099 O   0  0  0
    0.0021   -0.0041    0.0020 C   0  0  0
    0.7182   -0.4975   -1.2568 C   0  0  0
   -0.0270    0.0036   -2.4955 C   0  0  0
    0.6726   -0.5240   -3.7519 C   0  0  0
    2.1451   -0.1033   -3.7145 C   0  0  0
    2.7769   -0.5988   -2.4122 C   0  0  0
    2.0941    0.0108   -1.2661 N   0  0  0
    0.7309   -0.5033    1.2229 C   0  0  0
    1.7302    0.2327    1.7939 C   0  0  0
    2.3903   -0.2485    2.9221 C   0  0  0
    2.0804   -1.4018    3.4632 N   0  0  0
    1.1129   -2.1705    2.9541 C   0  0  0
    0.7846   -3.4065    3.5386 C   0  0  0
   -0.2052   -4.1674    2.9977 C   0  0  0
   -0.9038   -3.7427    1.8691 C   0  0  0
   -0.6145   -2.5523    1.2755 C   0  0  0
    0.3972   -1.7380    1.8100 C   0  0  0
    1.5266   -3.8867    4.7592 C   0  0  0
    1.0234   -5.1319    5.1510 F   0  0  0
    2.8880   -4.0071    4.4601 F   0  0  0
    1.3574   -2.9670    5.7997 F   0  0  0
    3.4902    0.5782    3.5367 C   0  0  0
    4.0098   -0.0908    4.6501 F   0  0  0
    4.5063    0.7761    2.5956 F   0  0  0
    2.9758    1.8167    3.9349 F   0  0  0
    0.9045    1.7168    0.0026 H   0  0  0
   -1.0205   -0.3814    0.0098 H   0  0  0
    0.7344   -1.5874   -1.2609 H   0  0  0
   -1.0553   -0.3573   -2.4726 H   0  0  0
   -0.0229    1.0935   -2.5068 H   0  0  0
    0.6043   -1.6115   -3.7783 H   0  0  0
    0.1959   -0.1052   -4.6382 H   0  0  0
    2.6705   -0.5406   -4.5635 H   0  0  0
    2.2147    0.9834   -3.7626 H   0  0  0
    2.6846   -1.6833   -2.3542 H   0  0  0
    3.8316   -0.3242   -2.3936 H   0  0  0
    2.5418   -0.3493   -0.4367 H   0  0  0
    2.0084    1.1866    1.3707 H   0  0  0
   -0.4533   -5.1162    3.4502 H   0  0  0
   -1.6847   -4.3664    1.4598 H   0  0  0
   -1.1625   -2.2340    0.4010 H   0  0  0
  1  2  1  0
  1 27  1  0
  2  3  1  0
  2  9  1  0
  2 28  1  0
  3  8  1  0
  3  4  1  0
  3 29  1  0
  4  5  1  0
  4 30  1  0
  4 31  1  0
  5  6  1  0
  5 32  1  0
  5 33  1  0
  6  7  1  0
  6 34  1  0
  6 35  1  0
  7  8  1  0
  7 36  1  0
  7 37  1  0
  8 38  1  0
  9 18  4  0
  9 10  4  0
 10 11  4  0
 10 39  1  0
 11 12  4  0
 11 23  1  0
 12 13  4  0
 13 18  4  0
 13 14  4  0
 14 15  4  0
 14 19  1  0
 15 16  4  0
 15 40  1  0
 16 17  4  0
 16 41  1  0
 17 18  4  0
 17 42  1  0
 19 20  1  0
 19 21  1  0
 19 22  1  0
 23 24  1  0
 23 25  1  0
 23 26  1  0
M  END
$$$$
OC(C1CCCCN1)c2cc(nc3c(cccc23)C(F)(F)F)C(F)(F)F
CHcorina  02210111263D 1   1.00000     9.00000     0
CORINA evaluation copy  2.4  150  11.12.1900 (2001-3)
 42 44  0  0  0  0              1 V2000
    0.2195    1.4028    0.1269 O   0  0  0
    0.0021   -0.0041    0.0020 C   0  0  0
    0.6061   -0.4987   -1.3138 C   0  0  0
   -0.0895   -1.7939   -1.7375 C   0  0  0
   -1.5904   -1.5313   -1.8952 C   0  0  0
   -1.7921   -0.3791   -2.8843 C   0  0  0
   -1.0077    0.8422   -2.4008 C   0  0  0
    0.4233    0.5242   -2.3491 N   0  0  0
    0.6581   -0.7181    1.1556 C   0  0  0
    1.7746   -0.2068    1.7542 C   0  0  0
    2.3643   -0.8840    2.8191 C   0  0  0
    1.8767   -2.0130    3.2736 N   0  0  0
    0.7872   -2.5669    2.7329 C   0  0  0
    0.2685   -3.7778    3.2244 C   0  0  0
   -0.8423   -4.3178    2.6534 C   0  0  0
   -1.4793   -3.6898    1.5848 C   0  0  0
   -1.0067   -2.5164    1.0816 C   0  0  0
    0.1343   -1.9271    1.6500 C   0  0  0
    0.9406   -4.4753    4.3789 C   0  0  0
    0.2448   -5.6503    4.6829 F   0  0  0
    2.2582   -4.7907    4.0300 F   0  0  0
    0.9429   -3.6325    5.4955 F   0  0  0
    3.5957   -0.3038    3.4656 C   0  0  0
    4.0155   -1.1412    4.5046 F   0  0  0
    4.6150   -0.1950    2.5135 F   0  0  0
    3.2998    0.9636    3.9787 F   0  0  0
    1.1693    1.5494    0.0198 H   0  0  0
   -1.0686   -0.2083    0.0098 H   0  0  0
    1.6705   -0.6879   -1.1754 H   0  0  0
    0.3225   -2.1347   -2.6873 H   0  0  0
    0.0687   -2.5580   -0.9765 H   0  0  0
   -2.0802   -2.4282   -2.2745 H   0  0  0
   -2.0176   -1.2623   -0.9292 H   0  0  0
   -1.4318   -0.6770   -3.8690 H   0  0  0
   -2.8519   -0.1313   -2.9437 H   0  0  0
   -1.1697    1.6723   -3.0884 H   0  0  0
   -1.3525    1.1235   -1.4058 H   0  0  0
    0.8933    1.3550   -2.0220 H   0  0  0
    2.1998    0.7214    1.4020 H   0  0  0
   -1.2366   -5.2483    3.0344 H   0  0  0
   -2.3592   -4.1401    1.1497 H   0  0  0
   -1.5088   -2.0394    0.2529 H   0  0  0
  1  2  1  0
  1 27  1  0
  2  3  1  0
  2  9  1  0
  2 28  1  0
  3  8  1  0
  3  4  1  0
  3 29  1  0
  4  5  1  0
  4 30  1  0
  4 31  1  0
  5  6  1  0
  5 32  1  0
  5 33  1  0
  6  7  1  0
  6 34  1  0
  6 35  1  0
  7  8  1  0
  7 36  1  0
  7 37  1  0
  8 38  1  0
  9 18  4  0
  9 10  4  0
 10 11  4  0
 10 39  1  0
 11 12  4  0
 11 23  1  0
 12 13  4  0
 13 18  4  0
 13 14  4  0
 14 15  4  0
 14 19  1  0
 15 16  4  0
 15 40  1  0
 16 17  4  0
 16 41  1  0
 17 18  4  0
 17 42  1  0
 19 20  1  0
 19 21  1  0
 19 22  1  0
 23 24  1  0
 23 25  1  0
 23 26  1  0
M  END
$$$$
