CCNC1CC(N)C(OC2OC(=CCC2N)CN)C(O)C1OC3OCC(C)(O)C(NC)C3O
CHcorina  02210111263D 1   1.00000     0.00000     0
CORINA evaluation copy  2.4  150  11.12.1900 (2001-3)
 74 76  0  0  0  0              1 V2000
   -0.3537    1.7449    3.3858 C   0  0  0
   -0.2000    0.3949    2.6825 C   0  0  0
   -1.4785    0.0151    2.0668 N   0  0  0
   -1.2630   -1.2823    1.4124 C   0  0  0
   -1.5722   -2.4093    2.3999 C   0  0  0
   -1.3477   -3.7605    1.7183 C   0  0  0
   -1.6445   -4.8426    2.6665 N   0  0  0
   -2.2711   -3.8789    0.5041 C   0  0  0
   -3.6318   -3.7799    0.9290 O   0  0  0
   -4.3655   -4.7643    0.1977 C   0  0  0
   -3.9987   -6.0634    0.6491 O   0  0  0
   -4.7317   -6.9958    0.0239 C   0  0  0
   -5.9028   -6.8325   -0.5195 C   0  0  0
   -6.6108   -5.5018   -0.5320 C   0  0  0
   -5.8692   -4.5575    0.4258 C   0  0  0
   -6.2134   -4.8844    1.8160 N   0  0  0
   -4.1367   -8.3779   -0.0586 C   0  0  0
   -2.8607   -8.3193   -0.7840 N   0  0  0
   -1.9619   -2.7519   -0.4835 C   0  0  0
   -2.8242   -2.8625   -1.6176 O   0  0  0
   -2.1864   -1.4007    0.1981 C   0  0  0
   -3.5471   -1.3017    0.6231 O   0  0  0
   -3.9513    0.0511    0.4030 C   0  0  0
   -4.1671    0.2607   -0.9913 O   0  0  0
   -4.3904    1.6555   -1.1886 C   0  0  0
   -5.7183    2.0639   -0.5468 C   0  0  0
   -5.9653    3.5548   -0.7858 C   0  0  0
   -6.7820    1.3044   -1.1245 O   0  0  0
   -5.6498    1.7904    0.9599 C   0  0  0
   -6.9669    2.0300    1.5648 N   0  0  0
   -6.7238    2.4692    2.9453 C   0  0  0
   -5.2433    0.3282    1.1750 C   0  0  0
   -6.2797   -0.5315    0.6967 O   0  0  0
    0.5950    2.0267    3.8426 H   0  0  0
   -0.6459    2.5023    2.6584 H   0  0  0
   -1.1197    1.6675    4.1573 H   0  0  0
    0.5660    0.4723    1.9109 H   0  0  0
    0.0922   -0.3625    3.4098 H   0  0  0
   -2.1278   -0.1456    2.8223 H   0  0  0
   -0.2251   -1.3578    1.0883 H   0  0  0
   -0.9145   -2.3250    3.2650 H   0  0  0
   -2.6102   -2.3338    2.7240 H   0  0  0
   -0.3098   -3.8360    1.3942 H   0  0  0
   -1.0155   -4.7252    3.4466 H   0  0  0
   -2.5756   -4.6738    3.0168 H   0  0  0
   -2.1112   -4.8416    0.0185 H   0  0  0
   -4.1419   -4.6703   -0.8649 H   0  0  0
   -6.3855   -7.6823   -0.9792 H   0  0  0
   -6.5984   -5.0877   -1.5401 H   0  0  0
   -7.6407   -5.6297   -0.1986 H   0  0  0
   -6.1383   -3.5237    0.2095 H   0  0  0
   -7.2118   -4.7670    1.9028 H   0  0  0
   -6.0255   -5.8683    1.9375 H   0  0  0
   -3.9654   -8.7604    0.9476 H   0  0  0
   -4.8246   -9.0387   -0.5862 H   0  0  0
   -2.5010   -9.2615   -0.8146 H   0  0  0
   -3.0793   -8.0614   -1.7347 H   0  0  0
   -0.9239   -2.8274   -0.8076 H   0  0  0
   -2.6513   -3.7259   -2.0171 H   0  0  0
   -1.9661   -0.5978   -0.5054 H   0  0  0
   -3.1687    0.7245    0.7527 H   0  0  0
   -3.5781    2.2207   -0.7315 H   0  0  0
   -4.4232    1.8697   -2.2568 H   0  0  0
   -6.0056    3.7491   -1.8576 H   0  0  0
   -6.9113    3.8442   -0.3283 H   0  0  0
   -5.1550    4.1330   -0.3419 H   0  0  0
   -6.7840    1.5014   -2.0712 H   0  0  0
   -4.9118    2.4489    1.4179 H   0  0  0
   -7.3712    2.8156    1.0775 H   0  0  0
   -7.6766    2.6606    3.4388 H   0  0  0
   -6.1852    1.6902    3.4850 H   0  0  0
   -6.1292    3.3827    2.9366 H   0  0  0
   -5.0792    0.1477    2.2373 H   0  0  0
   -6.0233   -1.4345    0.9290 H   0  0  0
  1  2  1  0
  1 34  1  0
  1 35  1  0
  1 36  1  0
  2  3  1  0
  2 37  1  0
  2 38  1  0
  3  4  1  0
  3 39  1  0
  4 21  1  0
  4  5  1  0
  4 40  1  0
  5  6  1  0
  5 41  1  0
  5 42  1  0
  6  7  1  0
  6  8  1  0
  6 43  1  0
  7 44  1  0
  7 45  1  0
  8  9  1  0
  8 19  1  0
  8 46  1  0
  9 10  1  0
 10 15  1  0
 10 11  1  0
 10 47  1  0
 11 12  1  0
 12 13  2  0
 12 17  1  0
 13 14  1  0
 13 48  1  0
 14 15  1  0
 14 49  1  0
 14 50  1  0
 15 16  1  0
 15 51  1  0
 16 52  1  0
 16 53  1  0
 17 18  1  0
 17 54  1  0
 17 55  1  0
 18 56  1  0
 18 57  1  0
 19 20  1  0
 19 21  1  0
 19 58  1  0
 20 59  1  0
 21 22  1  0
 21 60  1  0
 22 23  1  0
 23 32  1  0
 23 24  1  0
 23 61  1  0
 24 25  1  0
 25 26  1  0
 25 62  1  0
 25 63  1  0
 26 27  1  0
 26 28  1  0
 26 29  1  0
 27 64  1  0
 27 65  1  0
 27 66  1  0
 28 67  1  0
 29 30  1  0
 29 32  1  0
 29 68  1  0
 30 31  1  0
 30 69  1  0
 31 70  1  0
 31 71  1  0
 31 72  1  0
 32 33  1  0
 32 73  1  0
 33 74  1  0
M  END
$$$$
CCNC1CC(N)C(OC2OC(=CCC2N)CN)C(O)C1OC3OCC(C)(O)C(NC)C3O
CHcorina  02210111263D 1   1.00000    11.00000     0
CORINA evaluation copy  2.4  150  11.12.1900 (2001-3)
 74 76  0  0  0  0              1 V2000
    0.5361    0.6668   -1.0966 C   0  0  0
   -0.0314   -0.7437   -0.9253 C   0  0  0
   -1.1821   -0.7011   -0.0130 N   0  0  0
   -1.6766   -2.0791    0.1073 C   0  0  0
   -2.1287   -2.3349    1.5464 C   0  0  0
   -3.2481   -1.3576    1.9107 C   0  0  0
   -2.7536    0.0204    1.7903 N   0  0  0
   -4.4306   -1.5599    0.9611 C   0  0  0
   -5.4762   -0.6471    1.3013 O   0  0  0
   -6.7079   -1.2799    0.9483 C   0  0  0
   -6.8468   -2.4926    1.6804 O   0  0  0
   -6.9149   -2.2359    2.9945 C   0  0  0
   -7.2943   -1.1237    3.5535 C   0  0  0
   -7.7080    0.0846    2.7527 C   0  0  0
   -7.8794   -0.3486    1.2892 C   0  0  0
   -7.8526    0.8299    0.4126 N   0  0  0
   -6.5102   -3.3529    3.9217 C   0  0  0
   -7.3786   -4.5159    3.6956 N   0  0  0
   -3.9786   -1.3041   -0.4781 C   0  0  0
   -3.4974    0.0364   -0.5951 O   0  0  0
   -2.8591   -2.2814   -0.8423 C   0  0  0
   -2.4369   -2.0425   -2.1864 O   0  0  0
   -3.1186   -2.9921   -3.0084 C   0  0  0
   -4.4774   -2.5898   -3.1702 O   0  0  0
   -4.4760   -1.2380   -3.6252 C   0  0  0
   -3.9021   -1.1685   -5.0422 C   0  0  0
   -4.7386   -2.0443   -5.9771 C   0  0  0
   -3.9279    0.1839   -5.5030 O   0  0  0
   -2.4559   -1.6762   -5.0207 C   0  0  0
   -1.6211   -0.7551   -4.2381 N   0  0  0
   -0.2692   -0.8219   -4.8091 C   0  0  0
   -2.4336   -3.0662   -4.3749 C   0  0  0
   -1.0807   -3.4952   -4.2092 O   0  0  0
    1.3898    0.6352   -1.7734 H   0  0  0
   -0.2322    1.3196   -1.5110 H   0  0  0
    0.8548    1.0504   -0.1274 H   0  0  0
   -0.3502   -1.1273   -1.8945 H   0  0  0
    0.7368   -1.3966   -0.5109 H   0  0  0
   -0.8238   -0.4415    0.8937 H   0  0  0
   -0.8791   -2.7754   -0.1522 H   0  0  0
   -2.4957   -3.3574    1.6357 H   0  0  0
   -1.2863   -2.1909    2.2229 H   0  0  0
   -3.5702   -1.5398    2.9359 H   0  0  0
   -3.4997    0.6244    2.1010 H   0  0  0
   -2.0037    0.1187    2.4582 H   0  0  0
   -4.7976   -2.5823    1.0504 H   0  0  0
   -6.7134   -1.4963   -0.1200 H   0  0  0
   -7.3139   -1.0641    4.6316 H   0  0  0
   -8.6520    0.4737    3.1344 H   0  0  0
   -6.9382    0.8531    2.8215 H   0  0  0
   -8.8233   -0.8800    1.1676 H   0  0  0
   -8.6170    1.4225    0.6999 H   0  0  0
   -7.0024    1.3300    0.6250 H   0  0  0
   -5.4741   -3.6296    3.7266 H   0  0  0
   -6.6092   -3.0210    4.9552 H   0  0  0
   -7.0727   -5.2347    4.3343 H   0  0  0
   -8.3064   -4.2458    3.9859 H   0  0  0
   -4.8210   -1.4481   -1.1546 H   0  0  0
   -4.2319    0.6187   -0.3574 H   0  0  0
   -3.2261   -3.3038   -0.7530 H   0  0  0
   -3.0855   -3.9724   -2.5330 H   0  0  0
   -5.4968   -0.8559   -3.6287 H   0  0  0
   -3.8648   -0.6315   -2.9568 H   0  0  0
   -5.7684   -1.6870   -5.9851 H   0  0  0
   -4.3287   -1.9938   -6.9858 H   0  0  0
   -4.7148   -3.0761   -5.6265 H   0  0  0
   -4.8532    0.4646   -5.4940 H   0  0  0
   -2.0748   -1.7394   -6.0400 H   0  0  0
   -1.9670    0.1752   -4.4199 H   0  0  0
    0.3911   -0.1516   -4.2589 H   0  0  0
    0.1061   -1.8426   -4.7358 H   0  0  0
   -0.3019   -0.5210   -5.8562 H   0  0  0
   -2.9654   -3.7731   -5.0118 H   0  0  0
   -1.1132   -4.3712   -3.8011 H   0  0  0
  1  2  1  0
  1 34  1  0
  1 35  1  0
  1 36  1  0
  2  3  1  0
  2 37  1  0
  2 38  1  0
  3  4  1  0
  3 39  1  0
  4 21  1  0
  4  5  1  0
  4 40  1  0
  5  6  1  0
  5 41  1  0
  5 42  1  0
  6  7  1  0
  6  8  1  0
  6 43  1  0
  7 44  1  0
  7 45  1  0
  8  9  1  0
  8 19  1  0
  8 46  1  0
  9 10  1  0
 10 15  1  0
 10 11  1  0
 10 47  1  0
 11 12  1  0
 12 13  2  0
 12 17  1  0
 13 14  1  0
 13 48  1  0
 14 15  1  0
 14 49  1  0
 14 50  1  0
 15 16  1  0
 15 51  1  0
 16 52  1  0
 16 53  1  0
 17 18  1  0
 17 54  1  0
 17 55  1  0
 18 56  1  0
 18 57  1  0
 19 20  1  0
 19 21  1  0
 19 58  1  0
 20 59  1  0
 21 22  1  0
 21 60  1  0
 22 23  1  0
 23 32  1  0
 23 24  1  0
 23 61  1  0
 24 25  1  0
 25 26  1  0
 25 62  1  0
 25 63  1  0
 26 27  1  0
 26 28  1  0
 26 29  1  0
 27 64  1  0
 27 65  1  0
 27 66  1  0
 28 67  1  0
 29 30  1  0
 29 32  1  0
 29 68  1  0
 30 31  1  0
 30 69  1  0
 31 70  1  0
 31 71  1  0
 31 72  1  0
 32 33  1  0
 32 73  1  0
 33 74  1  0
M  END
$$$$
CCNC1CC(N)C(OC2OC(=CCC2N)CN)C(O)C1OC3OCC(C)(O)C(NC)C3O
CHcorina  02210111263D 1   1.00000    68.00000     0
CORINA evaluation copy  2.4  150  11.12.1900 (2001-3)
 74 76  0  0  0  0              1 V2000
    0.1967    0.8427    0.2644 C   0  0  0
    0.1310   -0.6790    0.1191 C   0  0  0
   -1.2736   -1.1086    0.0977 N   0  0  0
   -1.2657   -2.5708   -0.0429 C   0  0  0
   -1.2420   -3.2162    1.3440 C   0  0  0
   -0.9692   -4.7151    1.2051 C   0  0  0
   -1.5547   -5.4274    2.3487 N   0  0  0
   -1.5965   -5.2302   -0.0917 C   0  0  0
   -1.9065   -6.6182    0.0477 O   0  0  0
   -1.7994   -7.1982   -1.2539 C   0  0  0
   -0.4984   -6.9505   -1.7592 O   0  0  0
   -0.3744   -7.5180   -2.9843 C   0  0  0
   -0.6041   -8.8222   -3.0841 C   0  0  0
   -1.0065   -9.5175   -1.7967 C   0  0  0
   -2.1220   -8.6843   -1.1580 C   0  0  0
   -2.2601   -9.0606    0.2552 N   0  0  0
    0.0097   -6.6984   -4.1891 C   0  0  0
   -0.9911   -5.6447   -4.4038 N   0  0  0
   -2.8785   -4.4484   -0.3846 C   0  0  0
   -3.6969   -4.4198    0.7866 O   0  0  0
   -2.5222   -3.0177   -0.7926 C   0  0  0
   -3.6064   -2.1456   -0.4673 O   0  0  0
   -4.4650   -2.1103   -1.6090 C   0  0  0
   -4.9046   -3.4290   -1.9028 O   0  0  0
   -6.1427   -3.3813   -2.5980 C   0  0  0
   -6.2101   -2.1615   -3.5188 C   0  0  0
   -4.9171   -2.0553   -4.3299 C   0  0  0
   -7.3251   -2.2868   -4.4038 O   0  0  0
   -6.3768   -0.9099   -2.6430 C   0  0  0
   -7.8024   -0.6615   -2.3900 N   0  0  0
   -7.9564    0.7909   -2.2325 C   0  0  0
   -5.6498   -1.1873   -1.3178 C   0  0  0
   -6.5432   -1.8243   -0.4023 O   0  0  0
    1.2390    1.1615    0.2803 H   0  0  0
   -0.3135    1.3104   -0.5776 H   0  0  0
   -0.2884    1.1402    1.1940 H   0  0  0
    0.6162   -0.9765   -0.8105 H   0  0  0
    0.6412   -1.1467    0.9612 H   0  0  0
   -1.6524   -0.9071    1.0110 H   0  0  0
   -0.3812   -2.8773   -0.6012 H   0  0  0
   -0.4561   -2.7581    1.9444 H   0  0  0
   -2.2055   -3.0660    1.8311 H   0  0  0
    0.1067   -4.8879    1.1817 H   0  0  0
   -1.1135   -5.0575    3.1773 H   0  0  0
   -2.5259   -5.1572    2.3922 H   0  0  0
   -0.8934   -5.0959   -0.9137 H   0  0  0
   -2.5268   -6.7221   -1.9114 H   0  0  0
   -0.5109   -9.3529   -4.0200 H   0  0  0
   -1.3725  -10.5205   -2.0161 H   0  0  0
   -0.1520   -9.5718   -1.1222 H   0  0  0
   -3.0608   -8.8829   -1.6751 H   0  0  0
   -2.4893  -10.0431    0.2726 H   0  0  0
   -1.3452   -8.9688    0.6705 H   0  0  0
    0.9862   -6.2436   -4.0229 H   0  0  0
    0.0535   -7.3422   -5.0676 H   0  0  0
   -0.6946   -5.1243   -5.2159 H   0  0  0
   -1.8512   -6.1086   -4.6549 H   0  0  0
   -3.4221   -4.9328   -1.1958 H   0  0  0
   -3.8986   -5.3390    1.0091 H   0  0  0
   -2.3367   -2.9817   -1.8661 H   0  0  0
   -3.9095   -1.7208   -2.4622 H   0  0  0
   -6.2528   -4.2867   -3.1949 H   0  0  0
   -6.9570   -3.3292   -1.8752 H   0  0  0
   -4.0878   -2.4538   -3.7454 H   0  0  0
   -5.0190   -2.6267   -5.2525 H   0  0  0
   -4.7234   -1.0097   -4.5695 H   0  0  0
   -7.1855   -3.0946   -4.9167 H   0  0  0
   -5.9316   -0.0472   -3.1387 H   0  0  0
   -8.2950   -0.9156   -3.2331 H   0  0  0
   -9.0034    1.0266   -2.0418 H   0  0  0
   -7.3487    1.1319   -1.3943 H   0  0  0
   -7.6314    1.2917   -3.1444 H   0  0  0
   -5.2901   -0.2503   -0.8927 H   0  0  0
   -6.0454   -1.9786    0.4123 H   0  0  0
  1  2  1  0
  1 34  1  0
  1 35  1  0
  1 36  1  0
  2  3  1  0
  2 37  1  0
  2 38  1  0
  3  4  1  0
  3 39  1  0
  4 21  1  0
  4  5  1  0
  4 40  1  0
  5  6  1  0
  5 41  1  0
  5 42  1  0
  6  7  1  0
  6  8  1  0
  6 43  1  0
  7 44  1  0
  7 45  1  0
  8  9  1  0
  8 19  1  0
  8 46  1  0
  9 10  1  0
 10 15  1  0
 10 11  1  0
 10 47  1  0
 11 12  1  0
 12 13  2  0
 12 17  1  0
 13 14  1  0
 13 48  1  0
 14 15  1  0
 14 49  1  0
 14 50  1  0
 15 16  1  0
 15 51  1  0
 16 52  1  0
 16 53  1  0
 17 18  1  0
 17 54  1  0
 17 55  1  0
 18 56  1  0
 18 57  1  0
 19 20  1  0
 19 21  1  0
 19 58  1  0
 20 59  1  0
 21 22  1  0
 21 60  1  0
 22 23  1  0
 23 32  1  0
 23 24  1  0
 23 61  1  0
 24 25  1  0
 25 26  1  0
 25 62  1  0
 25 63  1  0
 26 27  1  0
 26 28  1  0
 26 29  1  0
 27 64  1  0
 27 65  1  0
 27 66  1  0
 28 67  1  0
 29 30  1  0
 29 32  1  0
 29 68  1  0
 30 31  1  0
 30 69  1  0
 31 70  1  0
 31 71  1  0
 31 72  1  0
 32 33  1  0
 32 73  1  0
 33 74  1  0
M  END
$$$$
