COC(=O)C1=C(C)NC(=C(C1c2ccccc2N(=O)O)C(=O)OCC(C)C)C
CHcorina  02210111263D 1   1.00000     0.00000     0
CORINA evaluation copy  2.4  150  11.12.1900 (2001-3)
 53 54  0  0  0  0              2 V2000
    0.7787    1.8418   -0.7034 C   0  0  0
    0.4693    0.4594   -0.5154 O   0  0  0
   -0.8726    0.3448   -0.6011 C   0  0  0
   -1.5557    1.3310   -0.8047 O   0  0  0
   -1.4849   -0.9214   -0.4543 C   0  0  0
   -2.8223   -1.0199   -0.5477 C   0  0  0
   -3.6427    0.2156   -0.8152 C   0  0  0
   -3.4477   -2.2282   -0.4033 N   0  0  0
   -2.7952   -3.2772    0.1847 C   0  0  0
   -1.4567   -3.2731    0.3087 C   0  0  0
   -0.6262   -2.1284   -0.2033 C   0  0  0
    0.0526   -2.5417   -1.4838 C   0  0  0
   -0.6919   -3.0301   -2.5341 C   0  0  0
   -0.0703   -3.4112   -3.7121 C   0  0  0
    1.3048   -3.3053   -3.8475 C   0  0  0
    2.0682   -2.8197   -2.8100 C   0  0  0
    1.4472   -2.4246   -1.6123 C   0  0  0
    2.1836   -1.9488   -0.5926 N   0  4  0
    2.4892   -2.6810    0.3315 O   0  0  0
    2.5450   -0.7857   -0.5932 O   0  0  0
   -0.8160   -4.3707    0.9288 C   0  0  0
   -1.4757   -5.3055    1.3434 O   0  0  0
    0.5270   -4.3816    1.0609 O   0  0  0
    0.8677   -5.6046    1.7167 C   0  0  0
    2.3849   -5.6805    1.8984 C   0  0  0
    2.7497   -6.9900    2.6005 C   0  0  0
    3.0657   -5.6292    0.5291 C   0  0  0
   -3.5867   -4.4519    0.6992 C   0  0  0
    1.8576    1.9843   -0.6422 H   0  0  0
    0.4247    2.1634   -1.6828 H   0  0  0
    0.2897    2.4321    0.0715 H   0  0  0
   -4.6985   -0.0517   -0.8582 H   0  0  0
   -3.4830    0.9381   -0.0148 H   0  0  0
   -3.3398    0.6540   -1.7661 H   0  0  0
   -4.3579   -2.3415   -0.7189 H   0  0  0
    0.1315   -1.8749    0.5381 H   0  0  0
   -1.7642   -3.1167   -2.4392 H   0  0  0
   -0.6616   -3.7939   -4.5308 H   0  0  0
    1.7794   -3.6052   -4.7701 H   0  0  0
    3.1398   -2.7386   -2.9172 H   0  0  0
    3.0745   -0.4435    0.1401 H   0  0  0
    0.3827   -5.6412    2.6922 H   0  0  0
    0.5316   -6.4470    1.1121 H   0  0  0
    2.7210   -4.8381    2.5030 H   0  0  0
    3.8307   -7.0440    2.7299 H   0  0  0
    2.2647   -7.0265    3.5760 H   0  0  0
    2.4136   -7.8323    1.9959 H   0  0  0
    2.7296   -6.4715   -0.0755 H   0  0  0
    2.8058   -4.6962    0.0289 H   0  0  0
    4.1466   -5.6832    0.6585 H   0  0  0
   -4.6477   -4.2840    0.5146 H   0  0  0
   -3.2674   -5.3584    0.1848 H   0  0  0
   -3.4174   -4.5631    1.7702 H   0  0  0
  1  2  1  0
  1 29  1  0
  1 30  1  0
  1 31  1  0
  2  3  1  0
  3  4  2  0
  3  5  1  0
  5 11  1  0
  5  6  2  0
  6  7  1  0
  6  8  1  0
  7 32  1  0
  7 33  1  0
  7 34  1  0
  8  9  1  0
  8 35  1  0
  9 10  2  0
  9 28  1  0
 10 11  1  0
 10 21  1  0
 11 12  1  0
 11 36  1  0
 12 17  4  0
 12 13  4  0
 13 14  4  0
 13 37  1  0
 14 15  4  0
 14 38  1  0
 15 16  4  0
 15 39  1  0
 16 17  4  0
 16 40  1  0
 17 18  1  0
 18 19  2  0
 18 20  1  0
 20 41  1  0
 21 22  2  0
 21 23  1  0
 23 24  1  0
 24 25  1  0
 24 42  1  0
 24 43  1  0
 25 26  1  0
 25 27  1  0
 25 44  1  0
 26 45  1  0
 26 46  1  0
 26 47  1  0
 27 48  1  0
 27 49  1  0
 27 50  1  0
 28 51  1  0
 28 52  1  0
 28 53  1  0
M  RAD  1  18   1
M  END
$$$$
COC(=O)C1=C(C)NC(=C(C1c2ccccc2N(=O)O)C(=O)OCC(C)C)C
CHcorina  02210111263D 1   1.00000     1.00000     0
CORINA evaluation copy  2.4  150  11.12.1900 (2001-3)
 53 54  0  0  0  0              2 V2000
    0.3854    1.3209    0.4330 C   0  0  0
    0.2686   -0.0942    0.2720 O   0  0  0
   -1.0494   -0.3827    0.3013 C   0  0  0
   -1.8644    0.5093    0.4454 O   0  0  0
   -1.4833   -1.7216    0.1645 C   0  0  0
   -2.7998   -1.9921    0.1903 C   0  0  0
   -3.7871   -0.8683    0.3728 C   0  0  0
   -3.2544   -3.2752    0.0524 N   0  0  0
   -2.4391   -4.2445   -0.4651 C   0  0  0
   -1.1075   -4.0683   -0.5174 C   0  0  0
   -0.4633   -2.8104   -0.0126 C   0  0  0
    0.5881   -2.3627   -0.9951 C   0  0  0
    0.2514   -2.1320   -2.3103 C   0  0  0
    1.2160   -1.7210   -3.2157 C   0  0  0
    2.5282   -1.5370   -2.8096 C   0  0  0
    2.8866   -1.7619   -1.4997 C   0  0  0
    1.9146   -2.1737   -0.5713 C   0  0  0
    2.2540   -2.3961    0.7107 N   0  4  0
    2.5198   -3.5249    1.0833 O   0  0  0
    2.2957   -1.4688    1.4994 O   0  0  0
   -0.2957   -5.0880   -1.0659 C   0  0  0
   -0.8041   -6.1114   -1.4842 O   0  0  0
    1.0427   -4.9263   -1.1255 O   0  0  0
    1.5758   -6.1106   -1.7216 C   0  0  0
    3.0980   -5.9917   -1.8192 C   0  0  0
    3.6687   -7.2597   -2.4575 C   0  0  0
    3.4608   -4.7798   -2.6799 C   0  0  0
   -3.0412   -5.5255   -0.9822 C   0  0  0
    1.4381    1.6029    0.4157 H   0  0  0
   -0.1388    1.8235   -0.3799 H   0  0  0
   -0.0541    1.6156    1.3859 H   0  0  0
   -4.8002   -1.2704    0.3687 H   0  0  0
   -3.5980   -0.3693    1.3232 H   0  0  0
   -3.6771   -0.1522   -0.4417 H   0  0  0
   -4.1587   -3.4987    0.3230 H   0  0  0
    0.0073   -3.0096    0.9502 H   0  0  0
   -0.7684   -2.2724   -2.6372 H   0  0  0
    0.9436   -1.5429   -4.2455 H   0  0  0
    3.2724   -1.2163   -3.5236 H   0  0  0
    3.9099   -1.6186   -1.1854 H   0  0  0
    2.5398   -1.6288    2.4213 H   0  0  0
    1.3173   -6.9739   -1.1085 H   0  0  0
    1.1563   -6.2353   -2.7199 H   0  0  0
    3.5175   -5.8670   -0.8209 H   0  0  0
    4.7532   -7.1750   -2.5270 H   0  0  0
    3.4103   -8.1230   -1.8443 H   0  0  0
    3.2493   -7.3844   -3.4558 H   0  0  0
    3.0413   -4.9046   -3.6782 H   0  0  0
    3.0542   -3.8765   -2.2252 H   0  0  0
    4.5452   -4.6951   -2.7494 H   0  0  0
   -4.1239   -5.4932   -0.8603 H   0  0  0
   -2.7978   -5.6409   -2.0384 H   0  0  0
   -2.6374   -6.3689   -0.4221 H   0  0  0
  1  2  1  0
  1 29  1  0
  1 30  1  0
  1 31  1  0
  2  3  1  0
  3  4  2  0
  3  5  1  0
  5 11  1  0
  5  6  2  0
  6  7  1  0
  6  8  1  0
  7 32  1  0
  7 33  1  0
  7 34  1  0
  8  9  1  0
  8 35  1  0
  9 10  2  0
  9 28  1  0
 10 11  1  0
 10 21  1  0
 11 12  1  0
 11 36  1  0
 12 17  4  0
 12 13  4  0
 13 14  4  0
 13 37  1  0
 14 15  4  0
 14 38  1  0
 15 16  4  0
 15 39  1  0
 16 17  4  0
 16 40  1  0
 17 18  1  0
 18 19  2  0
 18 20  1  0
 20 41  1  0
 21 22  2  0
 21 23  1  0
 23 24  1  0
 24 25  1  0
 24 42  1  0
 24 43  1  0
 25 26  1  0
 25 27  1  0
 25 44  1  0
 26 45  1  0
 26 46  1  0
 26 47  1  0
 27 48  1  0
 27 49  1  0
 27 50  1  0
 28 51  1  0
 28 52  1  0
 28 53  1  0
M  RAD  1  18   1
M  END
$$$$
