Cc1nccn1CC2CC(=O)c3c(C2)n(C)c4ccccc34
CHcorina  02210111253D 1   1.00000     0.00000     0
CORINA evaluation copy  2.4  150  11.12.1900 (2001-3)
 41 44  0  0  0  0              1 V2000
   -0.0184    1.5028    0.0103 C   0  0  0
    0.0021   -0.0041    0.0020 C   0  0  0
    0.0080   -0.7588   -1.0626 N   0  0  0
    0.0275   -2.0475   -0.6911 C   0  0  0
    0.0339   -2.0930    0.6548 C   0  0  0
    0.0232   -0.7970    1.0950 N   0  0  0
    0.0255   -0.3530    2.4911 C   0  0  0
    1.4688   -0.1848    2.9704 C   0  0  0
    2.1791    0.8393    2.0853 C   0  0  0
    3.6094    1.0183    2.5448 C   0  0  0
    4.4939    1.2796    1.7554 O   0  0  0
    3.8821    0.8701    3.9270 C   0  0  0
    2.8974    0.5274    4.8475 C   0  0  0
    1.4668    0.2799    4.4318 C   0  0  0
    3.4357    0.4640    6.0766 N   0  0  0
    2.6938    0.1392    7.2974 C   0  0  0
    4.7763    0.7451    6.0286 C   0  0  0
    5.7445    0.7966    7.0289 C   0  0  0
    7.0348    1.1162    6.6428 C   0  0  0
    7.3666    1.3764    5.3243 C   0  0  0
    6.4239    1.3321    4.3115 C   0  0  0
    5.1177    1.0118    4.6792 C   0  0  0
    1.0042    1.8801    0.0026 H   0  0  0
   -0.5455    1.8639   -0.8728 H   0  0  0
   -0.5286    1.8543    0.9071 H   0  0  0
    0.0365   -2.8993   -1.3550 H   0  0  0
    0.0489   -2.9814    1.2688 H   0  0  0
   -0.4970    0.6003    2.5700 H   0  0  0
   -0.4784   -1.0958    3.1094 H   0  0  0
    1.9866   -1.1411    2.8970 H   0  0  0
    2.1720    0.4913    1.0523 H   0  0  0
    1.6574    1.7943    2.1469 H   0  0  0
    0.8920    1.2014    4.5242 H   0  0  0
    1.0285   -0.4929    5.0632 H   0  0  0
    2.7144   -0.9385    7.4591 H   0  0  0
    3.1542    0.6431    8.1472 H   0  0  0
    1.6608    0.4714    7.1940 H   0  0  0
    5.4989    0.5961    8.0613 H   0  0  0
    7.8082    1.1644    7.3951 H   0  0  0
    8.3894    1.6213    5.0789 H   0  0  0
    6.6878    1.5364    3.2844 H   0  0  0
  1  2  1  0
  1 23  1  0
  1 24  1  0
  1 25  1  0
  2  6  4  0
  2  3  4  0
  3  4  4  0
  4  5  4  0
  4 26  1  0
  5  6  4  0
  5 27  1  0
  6  7  1  0
  7  8  1  0
  7 28  1  0
  7 29  1  0
  8 14  1  0
  8  9  1  0
  8 30  1  0
  9 10  1  0
  9 31  1  0
  9 32  1  0
 10 11  2  0
 10 12  1  0
 12 22  4  0
 12 13  4  0
 13 14  1  0
 13 15  4  0
 14 33  1  0
 14 34  1  0
 15 16  1  0
 15 17  4  0
 16 35  1  0
 16 36  1  0
 16 37  1  0
 17 22  4  0
 17 18  4  0
 18 19  4  0
 18 38  1  0
 19 20  4  0
 19 39  1  0
 20 21  4  0
 20 40  1  0
 21 22  4  0
 21 41  1  0
M  END
$$$$
Cc1nccn1CC2CC(=O)c3c(C2)n(C)c4ccccc34
CHcorina  02210111253D 1   1.00000     3.00000     0
CORINA evaluation copy  2.4  150  11.12.1900 (2001-3)
 41 44  0  0  0  0              1 V2000
    0.1812   -3.2680    1.4641 C   0  0  0
   -0.5405   -2.7883    2.6970 C   0  0  0
   -1.2871   -3.5229    3.4754 N   0  0  0
   -1.7665   -2.7648    4.4726 C   0  0  0
   -1.2990   -1.5129    4.3059 C   0  0  0
   -0.5169   -1.5285    3.1827 N   0  0  0
    0.2041   -0.3892    2.6095 C   0  0  0
    1.6631   -0.4258    3.0686 C   0  0  0
    2.4489    0.6646    2.3403 C   0  0  0
    1.8690    2.0244    2.6623 C   0  0  0
    1.8944    2.9257    1.8494 O   0  0  0
    1.2951    2.2106    3.9440 C   0  0  0
    1.2122    1.1841    4.8788 C   0  0  0
    1.7224   -0.2066    4.5852 C   0  0  0
    0.6316    1.6445    5.9992 N   0  0  0
    0.3880    0.8451    7.2025 C   0  0  0
    0.2993    2.9667    5.8593 C   0  0  0
   -0.3164    3.8607    6.7325 C   0  0  0
   -0.5137    5.1531    6.2775 C   0  0  0
   -0.1224    5.5571    5.0126 C   0  0  0
    0.4912    4.6890    4.1259 C   0  0  0
    0.6993    3.3820    4.5647 C   0  0  0
    1.2069   -3.5311    1.7227 H   0  0  0
   -0.3283   -4.1439    1.0625 H   0  0  0
    0.1871   -2.4759    0.7153 H   0  0  0
   -2.4138   -3.0997    5.2696 H   0  0  0
   -1.4994   -0.6612    4.9392 H   0  0  0
    0.1640   -0.4439    1.5217 H   0  0  0
   -0.2589    0.5392    2.9439 H   0  0  0
    2.0916   -1.3988    2.8286 H   0  0  0
    3.4912    0.6319    2.6576 H   0  0  0
    2.3932    0.4933    1.2653 H   0  0  0
    1.0953   -0.9427    5.0884 H   0  0  0
    2.7517   -0.3018    4.9311 H   0  0  0
    1.2489    0.9175    7.8672 H   0  0  0
   -0.4986    1.2196    7.7142 H   0  0  0
    0.2325   -0.1965    6.9215 H   0  0  0
   -0.6267    3.5584    7.7217 H   0  0  0
   -0.9889    5.8699    6.9308 H   0  0  0
   -0.3012    6.5780    4.7089 H   0  0  0
    0.7944    5.0092    3.1400 H   0  0  0
  1  2  1  0
  1 23  1  0
  1 24  1  0
  1 25  1  0
  2  6  4  0
  2  3  4  0
  3  4  4  0
  4  5  4  0
  4 26  1  0
  5  6  4  0
  5 27  1  0
  6  7  1  0
  7  8  1  0
  7 28  1  0
  7 29  1  0
  8 14  1  0
  8  9  1  0
  8 30  1  0
  9 10  1  0
  9 31  1  0
  9 32  1  0
 10 11  2  0
 10 12  1  0
 12 22  4  0
 12 13  4  0
 13 14  1  0
 13 15  4  0
 14 33  1  0
 14 34  1  0
 15 16  1  0
 15 17  4  0
 16 35  1  0
 16 36  1  0
 16 37  1  0
 17 22  4  0
 17 18  4  0
 18 19  4  0
 18 38  1  0
 19 20  4  0
 19 39  1  0
 20 21  4  0
 20 40  1  0
 21 22  4  0
 21 41  1  0
M  END
$$$$
