CCOC(=O)C1=C(NC(=C(C1c2ccccc2Cl)C(=O)OC)C)OCCN
CHcorina  02210111263D 1   1.00000     0.00000     0
CORINA evaluation copy  2.4  150  11.12.1900 (2001-3)
 50 51  0  0  0  0              1 V2000
   -0.0187    1.5258    0.0104 C   0  0  0
    0.0021   -0.0041    0.0020 C   0  0  0
   -1.3386   -0.4987    0.0122 O   0  0  0
   -1.2573   -1.8467    0.0041 C   0  0  0
   -0.1679   -2.3911   -0.0092 O   0  0  0
   -2.4290   -2.6208    0.0112 C   0  0  0
   -2.3322   -3.9751    0.0085 C   0  0  0
   -3.4604   -4.7555    0.0067 N   0  0  0
   -4.6682   -4.2200   -0.3494 C   0  0  0
   -4.8586   -2.8901   -0.3612 C   0  0  0
   -3.7654   -1.9344    0.0276 C   0  0  0
   -4.0422   -1.3997    1.4091 C   0  0  0
   -4.1237   -2.2670    2.4825 C   0  0  0
   -4.3781   -1.7768    3.7496 C   0  0  0
   -4.5511   -0.4190    3.9443 C   0  0  0
   -4.4699    0.4490    2.8721 C   0  0  0
   -4.2092   -0.0405    1.6043 C   0  0  0
   -4.1070    1.0492    0.2568 Cl  0  0  0
   -6.1196   -2.3775   -0.7443 C   0  0  0
   -7.0159   -3.1384   -1.0580 O   0  0  0
   -6.3289   -1.0445   -0.7620 O   0  0  0
   -7.6791   -0.8440   -1.1850 C   0  0  0
   -5.8016   -5.1355   -0.7345 C   0  0  0
   -1.1153   -4.5587    0.0073 O   0  0  0
   -1.3344   -5.9708    0.0046 C   0  0  0
    0.0128   -6.6959    0.0031 C   0  0  0
    0.7723   -6.3206    1.2032 N   0  0  0
    1.0039    1.9031    0.0027 H   0  0  0
   -0.5459    1.8868   -0.8726 H   0  0  0
   -0.5289    1.8773    0.9072 H   0  0  0
    0.5123   -0.3556   -0.8948 H   0  0  0
    0.5293   -0.3651    0.8851 H   0  0  0
   -3.4018   -5.6903    0.2590 H   0  0  0
   -3.7454   -1.1053   -0.6797 H   0  0  0
   -3.9889   -3.3278    2.3310 H   0  0  0
   -4.4420   -2.4548    4.5879 H   0  0  0
   -4.7502   -0.0366    4.9346 H   0  0  0
   -4.6055    1.5096    3.0242 H   0  0  0
   -7.8958    0.2238   -1.2148 H   0  0  0
   -7.8156   -1.2703   -2.1789 H   0  0  0
   -8.3558   -1.3326   -0.4840 H   0  0  0
   -5.4700   -6.1718   -0.6688 H   0  0  0
   -6.6412   -4.9791   -0.0573 H   0  0  0
   -6.1133   -4.9180   -1.7561 H   0  0  0
   -1.8978   -6.2528    0.8941 H   0  0  0
   -1.8980   -6.2493   -0.8859 H   0  0  0
   -0.1543   -7.7730    0.0010 H   0  0  0
    0.5762   -6.4140   -0.8864 H   0  0  0
    1.6482   -6.8196    1.1599 H   0  0  0
    0.9925   -5.3401    1.1121 H   0  0  0
  1  2  1  0
  1 28  1  0
  1 29  1  0
  1 30  1  0
  2  3  1  0
  2 31  1  0
  2 32  1  0
  3  4  1  0
  4  5  2  0
  4  6  1  0
  6 11  1  0
  6  7  2  0
  7  8  1  0
  7 24  1  0
  8  9  1  0
  8 33  1  0
  9 10  2  0
  9 23  1  0
 10 11  1  0
 10 19  1  0
 11 12  1  0
 11 34  1  0
 12 17  4  0
 12 13  4  0
 13 14  4  0
 13 35  1  0
 14 15  4  0
 14 36  1  0
 15 16  4  0
 15 37  1  0
 16 17  4  0
 16 38  1  0
 17 18  1  0
 19 20  2  0
 19 21  1  0
 21 22  1  0
 22 39  1  0
 22 40  1  0
 22 41  1  0
 23 42  1  0
 23 43  1  0
 23 44  1  0
 24 25  1  0
 25 26  1  0
 25 45  1  0
 25 46  1  0
 26 27  1  0
 26 47  1  0
 26 48  1  0
 27 49  1  0
 27 50  1  0
M  END
$$$$
CCOC(=O)C1=C(NC(=C(C1c2ccccc2Cl)C(=O)OC)C)OCCN
CHcorina  02210111263D 1   1.00000     1.00000     0
CORINA evaluation copy  2.4  150  11.12.1900 (2001-3)
 50 51  0  0  0  0              1 V2000
   -0.0187    1.5258    0.0104 C   0  0  0
    0.0021   -0.0041    0.0020 C   0  0  0
   -1.3386   -0.4987    0.0122 O   0  0  0
   -1.2573   -1.8467    0.0041 C   0  0  0
   -0.1679   -2.3911   -0.0092 O   0  0  0
   -2.4290   -2.6208    0.0112 C   0  0  0
   -2.3322   -3.9751    0.0085 C   0  0  0
   -3.4603   -4.7555    0.0229 N   0  0  0
   -4.6632   -4.2213    0.3973 C   0  0  0
   -4.8534   -2.8915    0.4164 C   0  0  0
   -3.7654   -1.9344    0.0276 C   0  0  0
   -3.7338   -0.7934    1.0116 C   0  0  0
   -3.4962   -1.0416    2.3506 C   0  0  0
   -3.4677    0.0047    3.2533 C   0  0  0
   -3.6768    1.3002    2.8177 C   0  0  0
   -3.9144    1.5496    1.4794 C   0  0  0
   -3.9369    0.5032    0.5742 C   0  0  0
   -4.2353    0.8157   -1.1071 Cl  0  0  0
   -6.1093   -2.3803    0.8175 C   0  0  0
   -7.0015   -3.1424    1.1399 O   0  0  0
   -6.3183   -1.0473    0.8429 O   0  0  0
   -7.6629   -0.8485    1.2839 C   0  0  0
   -5.7915   -5.1383    0.7936 C   0  0  0
   -1.1154   -4.5587   -0.0088 O   0  0  0
   -1.3345   -5.9708   -0.0071 C   0  0  0
    0.0126   -6.6959   -0.0265 C   0  0  0
    0.7885   -6.3193    1.1627 N   0  0  0
    1.0039    1.9031    0.0027 H   0  0  0
   -0.5459    1.8868   -0.8726 H   0  0  0
   -0.5289    1.8773    0.9072 H   0  0  0
    0.5123   -0.3556   -0.8948 H   0  0  0
    0.5293   -0.3651    0.8851 H   0  0  0
   -3.4052   -5.6894   -0.2335 H   0  0  0
   -3.9713   -1.5429   -0.9686 H   0  0  0
   -3.3332   -2.0534    2.6915 H   0  0  0
   -3.2824   -0.1898    4.2993 H   0  0  0
   -3.6547    2.1173    3.5235 H   0  0  0
   -4.0780    2.5615    1.1393 H   0  0  0
   -7.8792    0.2193    1.3204 H   0  0  0
   -8.3486   -1.3345    0.5898 H   0  0  0
   -7.7867   -1.2784    2.2778 H   0  0  0
   -5.4610   -6.1743    0.7190 H   0  0  0
   -6.0896   -4.9250    1.8201 H   0  0  0
   -6.6401   -4.9788    0.1282 H   0  0  0
   -1.8856   -6.2519    0.8903 H   0  0  0
   -1.9102   -6.2502   -0.8895 H   0  0  0
   -0.1545   -7.7730   -0.0252 H   0  0  0
    0.5637   -6.4148   -0.9239 H   0  0  0
    1.6637   -6.8184    1.1079 H   0  0  0
    1.0073   -5.3389    1.0677 H   0  0  0
  1  2  1  0
  1 28  1  0
  1 29  1  0
  1 30  1  0
  2  3  1  0
  2 31  1  0
  2 32  1  0
  3  4  1  0
  4  5  2  0
  4  6  1  0
  6 11  1  0
  6  7  2  0
  7  8  1  0
  7 24  1  0
  8  9  1  0
  8 33  1  0
  9 10  2  0
  9 23  1  0
 10 11  1  0
 10 19  1  0
 11 12  1  0
 11 34  1  0
 12 17  4  0
 12 13  4  0
 13 14  4  0
 13 35  1  0
 14 15  4  0
 14 36  1  0
 15 16  4  0
 15 37  1  0
 16 17  4  0
 16 38  1  0
 17 18  1  0
 19 20  2  0
 19 21  1  0
 21 22  1  0
 22 39  1  0
 22 40  1  0
 22 41  1  0
 23 42  1  0
 23 43  1  0
 23 44  1  0
 24 25  1  0
 25 26  1  0
 25 45  1  0
 25 46  1  0
 26 27  1  0
 26 47  1  0
 26 48  1  0
 27 49  1  0
 27 50  1  0
M  END
$$$$
