CC(CN1c2ccccc2Sc3ccccc13)N(C)C
CHcorina  02210111263D 1   1.00000     0.00000     0
CORINA evaluation copy  2.4  150  11.12.1900 (2001-3)
 40 42  0  0  0  0              1 V2000
   -0.6310   -1.0222    0.8278 C   0  0  0
    0.3220   -0.0144    0.1819 C   0  0  0
    0.8227   -0.5692   -1.1532 C   0  0  0
    0.7808   -2.0332   -1.1202 N   0  0  0
    1.8197   -2.7145   -0.4868 C   0  0  0
    2.5179   -2.0682    0.5278 C   0  0  0
    3.5545   -2.7090    1.1795 C   0  0  0
    3.9018   -3.9987    0.8241 C   0  0  0
    3.2134   -4.6475   -0.1824 C   0  0  0
    2.1679   -4.0109   -0.8450 C   0  0  0
    1.3206   -4.8761   -2.1187 S   0  0  0
   -0.1849   -3.9748   -2.2195 C   0  0  0
   -1.2899   -4.5787   -2.8125 C   0  0  0
   -2.4891   -3.9003   -2.9102 C   0  0  0
   -2.5985   -2.6139   -2.4170 C   0  0  0
   -1.5074   -2.0059   -1.8256 C   0  0  0
   -0.2991   -2.6816   -1.7187 C   0  0  0
   -0.3867    1.2515   -0.0487 N   0  0  0
   -0.7272    1.7917    1.2743 C   0  0  0
    0.5856    2.1771   -0.6451 C   0  0  0
   -1.5739   -1.0325    0.2810 H   0  0  0
   -0.1833   -2.0156    0.7989 H   0  0  0
   -0.8147   -0.7363    1.8634 H   0  0  0
    1.1702    0.1595    0.8441 H   0  0  0
    0.1857   -0.2055   -1.9595 H   0  0  0
    1.8475   -0.2387   -1.3226 H   0  0  0
    2.2488   -1.0604    0.8076 H   0  0  0
    4.0933   -2.2019    1.9662 H   0  0  0
    4.7120   -4.4992    1.3334 H   0  0  0
    3.4884   -5.6551   -0.4573 H   0  0  0
   -1.2090   -5.5840   -3.1989 H   0  0  0
   -3.3419   -4.3756   -3.3721 H   0  0  0
   -3.5363   -2.0838   -2.4941 H   0  0  0
   -1.5958   -1.0007   -1.4407 H   0  0  0
   -1.2576    2.7365    1.1554 H   0  0  0
   -1.3630    1.0822    1.8038 H   0  0  0
    0.1864    1.9573    1.8452 H   0  0  0
    0.1350    3.1649   -0.7417 H   0  0  0
    1.4663    2.2404   -0.0060 H   0  0  0
    0.8770    1.8128   -1.6303 H   0  0  0
  1  2  1  0
  1 21  1  0
  1 22  1  0
  1 23  1  0
  2  3  1  0
  2 18  1  0
  2 24  1  0
  3  4  1  0
  3 25  1  0
  3 26  1  0
  4 17  1  0
  4  5  1  0
  5 10  4  0
  5  6  4  0
  6  7  4  0
  6 27  1  0
  7  8  4  0
  7 28  1  0
  8  9  4  0
  8 29  1  0
  9 10  4  0
  9 30  1  0
 10 11  1  0
 11 12  1  0
 12 17  4  0
 12 13  4  0
 13 14  4  0
 13 31  1  0
 14 15  4  0
 14 32  1  0
 15 16  4  0
 15 33  1  0
 16 17  4  0
 16 34  1  0
 18 19  1  0
 18 20  1  0
 19 35  1  0
 19 36  1  0
 19 37  1  0
 20 38  1  0
 20 39  1  0
 20 40  1  0
M  END
$$$$
CC(CN1c2ccccc2Sc3ccccc13)N(C)C
CHcorina  02210111263D 1   1.00000    18.00000     0
CORINA evaluation copy  2.4  150  11.12.1900 (2001-3)
 40 42  0  0  0  0              1 V2000
    3.0889   -0.0842   -2.5759 C   0  0  0
    1.5685    0.0855   -2.6000 C   0  0  0
    0.9661   -0.5349   -1.3378 C   0  0  0
    1.2282   -1.9762   -1.3292 N   0  0  0
    2.3523   -2.3390   -0.6053 C   0  0  0
    3.1156   -1.3630    0.0297 C   0  0  0
    4.2385   -1.7173    0.7527 C   0  0  0
    4.6302   -3.0379    0.8638 C   0  0  0
    3.8827   -4.0277    0.2386 C   0  0  0
    2.7699   -3.6718   -0.4774 C   0  0  0
    1.7533   -4.8694   -1.3104 S   0  0  0
    0.3827   -4.1160   -2.1562 C   0  0  0
   -0.5318   -4.8491   -2.8659 C   0  0  0
   -1.5779   -4.1930   -3.5019 C   0  0  0
   -1.6764   -2.8178   -3.4071 C   0  0  0
   -0.7515   -2.0826   -2.6906 C   0  0  0
    0.3024   -2.7204   -2.0420 C   0  0  0
    1.2361    1.5156   -2.6493 N   0  0  0
    1.7291    2.0193   -3.9381 C   0  0  0
   -0.2294    1.6071   -2.6929 C   0  0  0
    3.4962    0.4141   -1.6962 H   0  0  0
    3.3355   -1.1453   -2.5393 H   0  0  0
    3.5181    0.3578   -3.4751 H   0  0  0
    1.1612   -0.4127   -3.4797 H   0  0  0
    1.4179   -0.0782   -0.4572 H   0  0  0
   -0.1099   -0.3612   -1.3256 H   0  0  0
    2.8289   -0.3243   -0.0436 H   0  0  0
    4.8205   -0.9485    1.2393 H   0  0  0
    5.5109   -3.2983    1.4321 H   0  0  0
    4.1752   -5.0645    0.3152 H   0  0  0
   -0.4401   -5.9233   -2.9303 H   0  0  0
   -2.3086   -4.7533   -4.0665 H   0  0  0
   -2.4902   -2.3088   -3.9020 H   0  0  0
   -0.8484   -1.0086   -2.6310 H   0  0  0
    1.5048    3.0827   -4.0224 H   0  0  0
    2.8071    1.8695   -3.9985 H   0  0  0
    1.2413    1.4796   -4.7498 H   0  0  0
   -0.5244    2.6464   -2.8369 H   0  0  0
   -0.6066    1.0045   -3.5192 H   0  0  0
   -0.6445    1.2381   -1.7551 H   0  0  0
  1  2  1  0
  1 21  1  0
  1 22  1  0
  1 23  1  0
  2  3  1  0
  2 18  1  0
  2 24  1  0
  3  4  1  0
  3 25  1  0
  3 26  1  0
  4 17  1  0
  4  5  1  0
  5 10  4  0
  5  6  4  0
  6  7  4  0
  6 27  1  0
  7  8  4  0
  7 28  1  0
  8  9  4  0
  8 29  1  0
  9 10  4  0
  9 30  1  0
 10 11  1  0
 11 12  1  0
 12 17  4  0
 12 13  4  0
 13 14  4  0
 13 31  1  0
 14 15  4  0
 14 32  1  0
 15 16  4  0
 15 33  1  0
 16 17  4  0
 16 34  1  0
 18 19  1  0
 18 20  1  0
 19 35  1  0
 19 36  1  0
 19 37  1  0
 20 38  1  0
 20 39  1  0
 20 40  1  0
M  END
$$$$
