COC1C=COC2(C)Oc3cc(O)c4C(=O)C(=C5NC6(CCN(CC6)C(C)C)N=C5c4c3C2=O)NC(=O)C(=CC=CC(
CHcorina  03230118583D 1   1.00000     0.00000     0
CORINA evaluation copy  2.4  150  11.12.1900 (2001-3)
117	122  0  0  0  0              1 V2000
    0.2302    0.3339    1.3392 C   0  0  0
   -0.4630    1.3468    2.0711 O   0  0  0
   -1.7806    0.8509    2.3160 C   0  0  0
   -2.4859    0.6249    1.0044 C   0  0  0
   -2.3485    1.4577   -0.0002 C   0  0  0
   -1.5923    2.5647    0.0914 O   0  0  0
   -1.0534    2.8883   -1.1891 C   0  0  0
   -2.0833    3.5299   -2.1051 C   0  0  0
   -0.4694    1.7322   -1.7958 O   0  0  0
    0.8837    1.7910   -1.7249 C   0  0  0
    1.8280    0.8714   -2.1660 C   0  0  0
    3.1810    1.0398   -1.9094 C   0  0  0
    4.0767    0.1364   -2.3751 O   0  0  0
    3.6214    2.1466   -1.1666 C   0  0  0
    5.0084    2.2194   -0.6632 C   0  0  0
    5.8241    1.3851   -1.0129 O   0  0  0
    5.4110    3.2956    0.2589 C   0  0  0
    4.5772    4.3824    0.4175 C   0  0  0
    4.7463    5.6013    1.0594 N   0  0  0
    3.4667    6.2930    0.9616 C   0  0  0
    2.7880    6.3875    2.3380 C   0  0  0
    1.6124    7.3607    2.2034 C   0  0  0
    2.1051    8.7294    2.0839 N   0  0  0
    3.4598    8.7085    1.5345 C   0  0  0
    3.5868    7.7027    0.3932 C   0  0  0
    1.2563    9.3982    1.0887 C   0  0  0
   -0.2080    9.3049    1.5222 C   0  0  0
    1.6626   10.8691    0.9779 C   0  0  0
    2.6051    5.4842    0.0947 N   0  0  0
    3.2169    4.3655   -0.1708 C   0  0  0
    2.6962    3.1548   -0.8574 C   0  0  0
    1.3270    2.9923   -1.1315 C   0  0  0
    0.1304    3.8339   -0.9585 C   0  0  0
    0.0908    5.0169   -0.6924 O   0  0  0
    6.4704    3.1101    1.1459 N   0  0  0
    6.5040    1.9651    1.8378 C   0  0  0
    5.7766    1.0639    1.4622 O   0  0  0
    7.3332    1.7101    2.9942 C   0  0  0
    6.9964    0.7770    3.9146 C   0  0  0
    5.7632   -0.0019    3.7983 C   0  0  0
    5.4148   -0.8349    4.7822 C   0  0  0
    4.1547   -1.6470    4.6626 C   0  0  0
    4.4119   -3.0651    5.1760 C   0  0  0
    3.0468   -0.9992    5.4911 C   0  0  0
    2.6943    0.2599    4.9145 O   0  0  0
    1.8210   -1.9163    5.5040 C   0  0  0
    2.0498   -3.0641    6.4894 C   0  0  0
    0.5994   -1.1019    5.9393 C   0  0  0
    0.8726    0.2912    5.7766 O   0  0  0
   -0.6031   -1.4902    5.0772 C   0  0  0
   -1.6235   -2.2442    5.9323 C   0  0  0
   -1.2461   -0.2211    4.5136 C   0  0  0
   -0.2792    0.8620    4.5324 O   0  0  0
   -0.6774    2.1123    4.8149 C   0  0  0
   -1.8404    2.3366    5.0536 O   0  0  0
    0.3262    3.2364    4.8344 C   0  0  0
   -1.6957   -0.4784    3.0718 C   0  0  0
   -3.0706   -1.1496    3.0784 C   0  0  0
    8.6024    2.5014    3.1787 C   0  0  0
    1.1810    0.7298    0.9824 H   0  0  0
    0.4138   -0.5222    1.9885 H   0  0  0
   -0.3755    0.0215    0.4886 H   0  0  0
   -2.3377    1.5741    2.9115 H   0  0  0
   -3.1188   -0.2425    0.8882 H   0  0  0
   -2.8582    1.2469   -0.9288 H   0  0  0
   -2.4588    4.4442   -1.6456 H   0  0  0
   -1.6198    3.7682   -3.0624 H   0  0  0
   -2.9098    2.8372   -2.2640 H   0  0  0
    1.5007    0.0050   -2.7215 H   0  0  0
    4.3488    0.4392   -3.2522 H   0  0  0
    5.5535    5.9272    1.4875 H   0  0  0
    2.4234    5.4055    2.6396 H   0  0  0
    3.4971    6.7626    3.0759 H   0  0  0
    1.0340    7.1068    1.3151 H   0  0  0
    0.9764    7.2821    3.0851 H   0  0  0
    3.7089    9.7024    1.1628 H   0  0  0
    4.1607    8.4405    2.3251 H   0  0  0
    4.5560    7.8202   -0.0915 H   0  0  0
    2.7927    7.8726   -0.3339 H   0  0  0
    1.3803    8.9130    0.1206 H   0  0  0
   -0.8267    9.8882    0.8402 H   0  0  0
   -0.5274    8.2629    1.5013 H   0  0  0
   -0.3132    9.6970    2.5337 H   0  0  0
    1.6690   11.3201    1.9702 H   0  0  0
    2.6586   10.9389    0.5406 H   0  0  0
    0.9497   11.3961    0.3438 H   0  0  0
    7.1576    3.7856    1.2572 H   0  0  0
    7.6531    0.6030    4.7542 H   0  0  0
    5.1387    0.0964    2.9226 H   0  0  0
    6.0358   -0.9248    5.6612 H   0  0  0
    3.8481   -1.6895    3.6174 H   0  0  0
    5.2677   -3.4914    4.6526 H   0  0  0
    4.6196   -3.0322    6.2455 H   0  0  0
    3.5315   -3.6821    4.9957 H   0  0  0
    3.3979   -0.8463    6.5116 H   0  0  0
    3.4930    0.8049    4.9237 H   0  0  0
    1.6563   -2.3199    4.5049 H   0  0  0
    1.7883   -2.7366    7.4956 H   0  0  0
    1.4256   -3.9128    6.2098 H   0  0  0
    3.0984   -3.3606    6.4648 H   0  0  0
    0.3785   -1.3092    6.9863 H   0  0  0
    1.4986    0.5364    6.4716 H   0  0  0
   -0.2729   -2.1278    4.2571 H   0  0  0
   -1.1625   -3.1445    6.3386 H   0  0  0
   -1.9550   -1.6048    6.7505 H   0  0  0
   -2.4798   -2.5204    5.3171 H   0  0  0
   -2.1091    0.0507    5.1215 H   0  0  0
   -0.1790    4.1702    5.0812 H   0  0  0
    1.0906    3.0281    5.5829 H   0  0  0
    0.7927    3.3240    3.8532 H   0  0  0
   -0.9755   -1.1304    2.5775 H   0  0  0
   -3.8155   -0.4482    3.4543 H   0  0  0
   -3.3334   -1.4495    2.0640 H   0  0  0
   -3.0425   -2.0291    3.7216 H   0  0  0
    9.0995    2.1824    4.0948 H   0  0  0
    9.2632    2.3316    2.3287 H   0  0  0
    8.3624    3.5625    3.2461 H   0  0  0
  1  2  1  0
  1 60  1  0
  1 61  1  0
  1 62  1  0
  2  3  1  0
  3 57  1  0
  3  4  1  0
  3 63  1  0
  4  5  2  0
  4 64  1  0
  5  6  1  0
  5 65  1  0
  6  7  1  0
  7 33  1  0
  7  8  1  0
  7  9  1  0
  8 66  1  0
  8 67  1  0
  8 68  1  0
  9 10  1  0
 10 32  4  0
 10 11  4  0
 11 12  4  0
 11 69  1  0
 12 13  1  0
 12 14  4  0
 13 70  1  0
 14 31  4  0
 14 15  1  0
 15 16  2  0
 15 17  1  0
 17 18  2  0
 17 35  1  0
 18 30  1  0
 18 19  1  0
 19 20  1  0
 19 71  1  0
 20 25  1  0
 20 21  1  0
 20 29  1  0
 21 22  1  0
 21 72  1  0
 21 73  1  0
 22 23  1  0
 22 74  1  0
 22 75  1  0
 23 24  1  0
 23 26  1  0
 24 25  1  0
 24 76  1  0
 24 77  1  0
 25 78  1  0
 25 79  1  0
 26 27  1  0
 26 28  1  0
 26 80  1  0
 27 81  1  0
 27 82  1  0
 27 83  1  0
 28 84  1  0
 28 85  1  0
 28 86  1  0
 29 30  2  0
 30 31  1  0
 31 32  4  0
 32 33  1  0
 33 34  2  0
 35 36  1  0
 35 87  1  0
 36 37  2  0
 36 38  1  0
 38 39  2  0
 38 59  1  0
 39 40  1  0
 39 88  1  0
 40 41  2  0
 40 89  1  0
 41 42  1  0
 41 90  1  0
 42 43  1  0
 42 44  1  0
 42 91  1  0
 43 92  1  0
 43 93  1  0
 43 94  1  0
 44 45  1  0
 44 46  1  0
 44 95  1  0
 45 96  1  0
 46 47  1  0
 46 48  1  0
 46 97  1  0
 47 98  1  0
 47 99  1  0
 47 100  1  0
 48 49  1  0
 48 50  1  0
 48 101  1  0
 49 102  1  0
 50 51  1  0
 50 52  1  0
 50 103  1  0
 51 104  1  0
 51 105  1  0
 51 106  1  0
 52 53  1  0
 52 57  1  0
 52 107  1  0
 53 54  1  0
 54 55  2  0
 54 56  1  0
 56 108  1  0
 56 109  1  0
 56 110  1  0
 57 58  1  0
 57 111  1  0
 58 112  1  0
 58 113  1  0
 58 114  1  0
 59 115  1  0
 59 116  1  0
 59 117  1  0
M  END
$$$$
