CCn1nc(C)c2NC(=O)CN=C(c21)c3ccccc3
CHcorina  02130121013D 1   1.00000     0.00000     0
CORINA evaluation copy  2.4  150  11.12.1900 (2001-3)
 36 38  0  0  0  0              1 V2000
   -0.0229    1.5989   -0.0399 C   0  0  0
    0.0099    0.0694   -0.0174 C   0  0  0
   -1.3604   -0.4480    0.0117 N   0  0  0
   -2.0839   -0.8051    1.1562 N   0  0  0
   -3.2685   -1.2281    0.7961 C   0  0  0
   -4.3516   -1.7056    1.7289 C   0  0  0
   -3.3636   -1.1630   -0.5990 C   0  0  0
   -4.4673   -1.5356   -1.3699 N   0  0  0
   -4.7978   -0.8640   -2.4801 C   0  0  0
   -5.7368   -1.2537   -3.1417 O   0  0  0
   -4.0494    0.3523   -2.9340 C   0  0  0
   -2.6869    0.0199   -3.3324 N   0  0  0
   -1.8129   -0.4252   -2.4790 C   0  0  0
   -2.1654   -0.6636   -1.0757 C   0  0  0
   -0.4283   -0.6932   -2.9354 C   0  0  0
    0.2802   -1.7790   -2.4219 C   0  0  0
    1.5685   -2.0237   -2.8509 C   0  0  0
    2.1577   -1.1940   -3.7883 C   0  0  0
    1.4601   -0.1152   -4.3009 C   0  0  0
    0.1686    0.1360   -3.8840 C   0  0  0
    0.9967    1.9839   -0.0615 H   0  0  0
   -0.5581    1.9378   -0.9269 H   0  0  0
   -0.5305    1.9646    0.8526 H   0  0  0
    0.5176   -0.2963   -0.9099 H   0  0  0
    0.5451   -0.2695    0.8697 H   0  0  0
   -4.9758   -0.8619    2.0231 H   0  0  0
   -4.9642   -2.4517    1.2227 H   0  0  0
   -3.8981   -2.1487    2.6155 H   0  0  0
   -5.0042   -2.2956   -1.0959 H   0  0  0
   -4.5708    0.7960   -3.7822 H   0  0  0
   -4.0163    1.0754   -2.1191 H   0  0  0
   -0.1785   -2.4269   -1.6896 H   0  0  0
    2.1182   -2.8643   -2.4539 H   0  0  0
    3.1665   -1.3893   -4.1209 H   0  0  0
    1.9254    0.5294   -5.0318 H   0  0  0
   -0.3751    0.9786   -4.2849 H   0  0  0
  1  2  1  0
  1 21  1  0
  1 22  1  0
  1 23  1  0
  2  3  1  0
  2 24  1  0
  2 25  1  0
  3 14  4  0
  3  4  4  0
  4  5  4  0
  5  6  1  0
  5  7  4  0
  6 26  1  0
  6 27  1  0
  6 28  1  0
  7 14  4  0
  7  8  1  0
  8  9  1  0
  8 29  1  0
  9 10  2  0
  9 11  1  0
 11 12  1  0
 11 30  1  0
 11 31  1  0
 12 13  2  0
 13 14  1  0
 13 15  1  0
 15 20  4  0
 15 16  4  0
 16 17  4  0
 16 32  1  0
 17 18  4  0
 17 33  1  0
 18 19  4  0
 18 34  1  0
 19 20  4  0
 19 35  1  0
 20 36  1  0
M  END
$$$$
CCn1nc(C)c2NC(=O)CN=C(c21)c3ccccc3
CHcorina  02130121013D 1   1.00000     0.00000     0
CORINA evaluation copy  2.4  150  11.12.1900 (2001-3)
 36 38  0  0  0  0              1 V2000
    0.1819    1.3215    0.3309 C   0  0  0
    0.1713   -0.1503   -0.0871 C   0  0  0
   -1.2105   -0.6348   -0.1334 N   0  0  0
   -1.9748   -1.0557    0.9619 N   0  0  0
   -3.1603   -1.4152    0.5406 C   0  0  0
   -4.2815   -1.9291    1.4065 C   0  0  0
   -3.2149   -1.2426   -0.8475 C   0  0  0
   -4.3130   -1.5055   -1.6699 N   0  0  0
   -4.1537   -1.9933   -2.9067 C   0  0  0
   -5.1346   -2.1610   -3.6001 O   0  0  0
   -2.8065   -2.3390   -3.4647 C   0  0  0
   -1.9830   -1.1489   -3.6410 N   0  0  0
   -1.5849   -0.4353   -2.6297 C   0  0  0
   -1.9881   -0.7517   -1.2552 C   0  0  0
   -0.7033    0.7317   -2.8708 C   0  0  0
    0.5356    0.5576   -3.4869 C   0  0  0
    1.3516    1.6476   -3.7091 C   0  0  0
    0.9432    2.9115   -3.3215 C   0  0  0
   -0.2843    3.0903   -2.7096 C   0  0  0
   -1.1119    2.0084   -2.4877 C   0  0  0
    1.1935    1.7173    0.2412 H   0  0  0
   -0.4885    1.8876   -0.3157 H   0  0  0
   -0.1517    1.4079    1.3650 H   0  0  0
    0.6250   -0.2513   -1.0730 H   0  0  0
    0.7381   -0.7373    0.6356 H   0  0  0
   -4.8901   -1.0917    1.7478 H   0  0  0
   -4.9003   -2.6165    0.8297 H   0  0  0
   -3.8653   -2.4508    2.2682 H   0  0  0
   -5.2079   -1.3316   -1.3387 H   0  0  0
   -2.3027   -3.0232   -2.7820 H   0  0  0
   -2.9355   -2.8293   -4.4296 H   0  0  0
    0.8557   -0.4286   -3.7892 H   0  0  0
    2.3113    1.5141   -4.1862 H   0  0  0
    1.5855    3.7618   -3.4972 H   0  0  0
   -0.5975    4.0791   -2.4086 H   0  0  0
   -2.0701    2.1491   -2.0097 H   0  0  0
  1  2  1  0
  1 21  1  0
  1 22  1  0
  1 23  1  0
  2  3  1  0
  2 24  1  0
  2 25  1  0
  3 14  4  0
  3  4  4  0
  4  5  4  0
  5  6  1  0
  5  7  4  0
  6 26  1  0
  6 27  1  0
  6 28  1  0
  7 14  4  0
  7  8  1  0
  8  9  1  0
  8 29  1  0
  9 10  2  0
  9 11  1  0
 11 12  1  0
 11 30  1  0
 11 31  1  0
 12 13  2  0
 13 14  1  0
 13 15  1  0
 15 20  4  0
 15 16  4  0
 16 17  4  0
 16 32  1  0
 17 18  4  0
 17 33  1  0
 18 19  4  0
 18 34  1  0
 19 20  4  0
 19 35  1  0
 20 36  1  0
M  END
$$$$
