Cc1nc2CCCCn2c(=O)c1CCN3CCC(CC3)c4noc5cc(F)ccc45
CHcorina  03230118583D 1   1.00000     0.00000     0
CORINA evaluation copy  2.4  150  11.12.1900 (2001-3)
 57 61  0  0  0  0              1 V2000
   -0.0184    1.5028    0.0103 C   0  0  0
    0.0021   -0.0041    0.0020 C   0  0  0
    0.0057   -0.6670   -1.1517 N   0  0  0
    0.0258   -1.9820   -1.2125 C   0  0  0
   -0.0062   -2.5961   -2.5903 C   0  0  0
    0.4466   -4.0539   -2.5392 C   0  0  0
   -0.3357   -4.7561   -1.4221 C   0  0  0
    0.1221   -4.1804   -0.0849 C   0  0  0
    0.0613   -2.7182   -0.0911 N   0  0  0
    0.0431   -2.1008    1.1186 C   0  0  0
    0.0493   -2.7587    2.1459 O   0  0  0
    0.0226   -0.6955    1.1755 C   0  0  0
    0.0115    0.0255    2.4988 C   0  0  0
    1.4501    0.2905    2.9473 C   0  0  0
    1.4393    0.9932    4.2373 N   0  0  0
    0.8700    0.0638    5.2189 C   0  0  0
    0.8323    0.7262    6.5975 C   0  0  0
    2.2610    1.0688    7.0310 C   0  0  0
    2.9117    1.9411    5.9530 C   0  0  0
    2.8409    1.2153    4.6080 C   0  0  0
    2.2254    1.8218    8.3359 C   0  0  0
    1.6303    2.9543    8.5531 N   0  0  0
    1.8196    3.3428    9.8989 O   0  0  0
    2.5606    2.4113   10.5322 C   0  0  0
    3.0338    2.2896   11.8325 C   0  0  0
    3.7872    1.1887   12.1877 C   0  0  0
    4.2466    1.0712   13.4528 F   0  0  0
    4.0768    0.1997   11.2544 C   0  0  0
    3.6203    0.3028    9.9715 C   0  0  0
    2.8512    1.4066    9.5942 C   0  0  0
    1.0042    1.8801    0.0026 H   0  0  0
   -0.5455    1.8639   -0.8728 H   0  0  0
   -0.5286    1.8543    0.9071 H   0  0  0
   -1.0225   -2.5489   -2.9813 H   0  0  0
    0.6580   -2.0363   -3.2488 H   0  0  0
    0.2394   -4.5374   -3.4939 H   0  0  0
    1.5145   -4.1005   -2.3263 H   0  0  0
   -1.4032   -4.5782   -1.5529 H   0  0  0
   -0.1348   -5.8270   -1.4497 H   0  0  0
   -0.5218   -4.5617    0.7077 H   0  0  0
    1.1480   -4.4947    0.1071 H   0  0  0
   -0.5161    0.9733    2.3918 H   0  0  0
   -0.4938   -0.5896    3.2434 H   0  0  0
    1.9777   -0.6573    3.0543 H   0  0  0
    1.9554    0.9055    2.2027 H   0  0  0
   -0.1425   -0.2055    4.9183 H   0  0  0
    1.4845   -0.8353    5.2654 H   0  0  0
    0.2383    1.6387    6.5469 H   0  0  0
    0.3873    0.0406    7.3188 H   0  0  0
    2.8354    0.1505    7.1533 H   0  0  0
    2.3805    2.8903    5.8830 H   0  0  0
    3.9542    2.1246    6.2133 H   0  0  0
    3.3514    0.2555    4.6868 H   0  0  0
    3.3265    1.8213    3.8432 H   0  0  0
    2.8134    3.0538   12.5631 H   0  0  0
    4.6673   -0.6562   11.5461 H   0  0  0
    3.8493   -0.4690    9.2517 H   0  0  0
  1  2  1  0
  1 31  1  0
  1 32  1  0
  1 33  1  0
  2 12  4  0
  2  3  4  0
  3  4  4  0
  4  9  4  0
  4  5  1  0
  5  6  1  0
  5 34  1  0
  5 35  1  0
  6  7  1  0
  6 36  1  0
  6 37  1  0
  7  8  1  0
  7 38  1  0
  7 39  1  0
  8  9  1  0
  8 40  1  0
  8 41  1  0
  9 10  4  0
 10 11  2  0
 10 12  4  0
 12 13  1  0
 13 14  1  0
 13 42  1  0
 13 43  1  0
 14 15  1  0
 14 44  1  0
 14 45  1  0
 15 20  1  0
 15 16  1  0
 16 17  1  0
 16 46  1  0
 16 47  1  0
 17 18  1  0
 17 48  1  0
 17 49  1  0
 18 19  1  0
 18 21  1  0
 18 50  1  0
 19 20  1  0
 19 51  1  0
 19 52  1  0
 20 53  1  0
 20 54  1  0
 21 30  4  0
 21 22  4  0
 22 23  4  0
 23 24  4  0
 24 30  4  0
 24 25  4  0
 25 26  4  0
 25 55  1  0
 26 27  1  0
 26 28  4  0
 28 29  4  0
 28 56  1  0
 29 30  4  0
 29 57  1  0
M  END
$$$$
Cc1nc2CCCCn2c(=O)c1CCN3CCC(CC3)c4noc5cc(F)ccc45
CHcorina  03230118583D 1   1.00000     3.00000     0
CORINA evaluation copy  2.4  150  11.12.1900 (2001-3)
 57 61  0  0  0  0              1 V2000
    0.3902    1.6801   -0.0877 C   0  0  0
    0.2028    0.1849   -0.1016 C   0  0  0
    0.2015   -0.4787   -1.2549 N   0  0  0
    0.0391   -1.7836   -1.3207 C   0  0  0
    0.0934   -2.4037   -2.6951 C   0  0  0
   -0.5213   -3.8017   -2.6783 C   0  0  0
    0.1024   -4.5816   -1.5139 C   0  0  0
   -0.3758   -3.9525   -0.2082 C   0  0  0
   -0.1521   -2.5062   -0.2062 N   0  0  0
   -0.1452   -1.8892    1.0038 C   0  0  0
   -0.2926   -2.5376    2.0265 O   0  0  0
    0.0391   -0.4960    1.0668 C   0  0  0
    0.0434    0.2251    2.3900 C   0  0  0
    1.4708    0.2760    2.9385 C   0  0  0
    1.4750    0.9789    4.2283 N   0  0  0
    0.9991    2.3416    3.9673 C   0  0  0
    1.7482    2.9311    2.7706 C   0  0  0
    3.2437    2.9974    3.0955 C   0  0  0
    3.7291    1.5991    3.4901 C   0  0  0
    2.8766    1.0791    4.6492 C   0  0  0
    4.0029    3.4715    1.8830 C   0  0  0
    4.0346    2.8928    0.7220 N   0  0  0
    4.8531    3.6352   -0.1594 O   0  0  0
    5.3429    4.7122    0.4872 C   0  0  0
    6.1801    5.7541    0.1087 C   0  0  0
    6.5087    6.7359    1.0219 C   0  0  0
    7.3226    7.7490    0.6526 F   0  0  0
    6.0085    6.6909    2.3184 C   0  0  0
    5.1846    5.6739    2.7082 C   0  0  0
    4.8357    4.6741    1.7967 C   0  0  0
    1.4528    1.9124   -0.0165 H   0  0  0
   -0.0140    2.1056   -1.0062 H   0  0  0
   -0.1325    2.1039    0.7698 H   0  0  0
   -0.4595   -1.7764   -3.3944 H   0  0  0
    1.1323   -2.4718   -3.0178 H   0  0  0
   -1.5995   -3.7283   -2.5368 H   0  0  0
   -0.3069   -4.3096   -3.6186 H   0  0  0
   -0.2141   -5.6237   -1.5578 H   0  0  0
    1.1893   -4.5245   -1.5733 H   0  0  0
   -1.4408   -4.1496   -0.0857 H   0  0  0
    0.1681   -4.3994    0.6240 H   0  0  0
   -0.3291    1.2401    2.2518 H   0  0  0
   -0.5979   -0.3045    3.0945 H   0  0  0
    1.8433   -0.7391    3.0766 H   0  0  0
    2.1121    0.8056    2.2340 H   0  0  0
   -0.0688    2.3171    3.7502 H   0  0  0
    1.1752    2.9616    4.8463 H   0  0  0
    1.5931    2.2987    1.8965 H   0  0  0
    1.3752    3.9346    2.5659 H   0  0  0
    3.4071    3.6875    3.9232 H   0  0  0
    3.6338    0.9265    2.6376 H   0  0  0
    4.7729    1.6499    3.7999 H   0  0  0
    2.9536    1.7658    5.4922 H   0  0  0
    3.2358    0.0951    4.9504 H   0  0  0
    6.5728    5.7958   -0.8965 H   0  0  0
    6.2739    7.4656    3.0225 H   0  0  0
    4.8001    5.6451    3.7170 H   0  0  0
  1  2  1  0
  1 31  1  0
  1 32  1  0
  1 33  1  0
  2 12  4  0
  2  3  4  0
  3  4  4  0
  4  9  4  0
  4  5  1  0
  5  6  1  0
  5 34  1  0
  5 35  1  0
  6  7  1  0
  6 36  1  0
  6 37  1  0
  7  8  1  0
  7 38  1  0
  7 39  1  0
  8  9  1  0
  8 40  1  0
  8 41  1  0
  9 10  4  0
 10 11  2  0
 10 12  4  0
 12 13  1  0
 13 14  1  0
 13 42  1  0
 13 43  1  0
 14 15  1  0
 14 44  1  0
 14 45  1  0
 15 20  1  0
 15 16  1  0
 16 17  1  0
 16 46  1  0
 16 47  1  0
 17 18  1  0
 17 48  1  0
 17 49  1  0
 18 19  1  0
 18 21  1  0
 18 50  1  0
 19 20  1  0
 19 51  1  0
 19 52  1  0
 20 53  1  0
 20 54  1  0
 21 30  4  0
 21 22  4  0
 22 23  4  0
 23 24  4  0
 24 30  4  0
 24 25  4  0
 25 26  4  0
 25 55  1  0
 26 27  1  0
 26 28  4  0
 28 29  4  0
 28 56  1  0
 29 30  4  0
 29 57  1  0
M  END
$$$$
Cc1nc2CCCCn2c(=O)c1CCN3CCC(CC3)c4noc5cc(F)ccc45
CHcorina  03230118583D 1   1.00000    41.00000     0
CORINA evaluation copy  2.4  150  11.12.1900 (2001-3)
 57 61  0  0  0  0              1 V2000
   -0.0184    1.5028    0.0103 C   0  0  0
    0.0021   -0.0041    0.0020 C   0  0  0
    0.0056   -0.6646   -1.1604 N   0  0  0
    0.0236   -1.9657   -1.1962 C   0  0  0
    0.0327   -2.7256   -2.5005 C   0  0  0
    1.1384   -3.7748   -2.4650 C   0  0  0
    1.1511   -4.5748   -1.1741 C   0  0  0
    0.0520   -4.1602   -0.2040 C   0  0  0
    0.0371   -2.7034   -0.0613 N   0  0  0
    0.0361   -2.1017    1.1396 C   0  0  0
    0.0508   -2.7568    2.1685 O   0  0  0
    0.0226   -0.6898    1.1787 C   0  0  0
    0.0204    0.0429    2.4956 C   0  0  0
    1.4621    0.3048    2.9358 C   0  0  0
    1.4600    1.0190    4.2195 N   0  0  0
    0.8641    2.3355    3.9684 C   0  0  0
    0.8336    3.1458    5.2658 C   0  0  0
    2.2673    3.3534    5.7638 C   0  0  0
    2.9440    1.9873    5.9138 C   0  0  0
    2.8642    1.2375    4.5826 C   0  0  0
    3.0314    4.1888    4.7692 C   0  0  0
    3.2500    3.8928    3.5249 N   0  0  0
    4.0020    4.9222    2.9142 O   0  0  0
    4.2546    5.8881    3.8205 C   0  0  0
    4.9356    7.0974    3.7626 C   0  0  0
    5.0243    7.8889    4.8901 C   0  0  0
    5.6865    9.0651    4.8325 F   0  0  0
    4.4374    7.4859    6.0843 C   0  0  0
    3.7644    6.3001    6.1599 C   0  0  0
    3.6585    5.4877    5.0280 C   0  0  0
    1.0042    1.8801    0.0026 H   0  0  0
   -0.5455    1.8639   -0.8728 H   0  0  0
   -0.5286    1.8543    0.9071 H   0  0  0
   -0.9302   -3.2165   -2.6422 H   0  0  0
    0.2137   -2.0340   -3.3232 H   0  0  0
    1.0001   -4.4597   -3.3017 H   0  0  0
    2.1006   -3.2755   -2.5787 H   0  0  0
    1.0267   -5.6307   -1.4145 H   0  0  0
    2.1172   -4.4405   -0.6877 H   0  0  0
   -0.9124   -4.4962   -0.5850 H   0  0  0
    0.2365   -4.6170    0.7683 H   0  0  0
   -0.5030    0.9922    2.3823 H   0  0  0
   -0.4848   -0.5631    3.2477 H   0  0  0
    1.9856   -0.6446    3.0491 H   0  0  0
    1.9673    0.9108    2.1837 H   0  0  0
    1.4578    2.8659    3.2239 H   0  0  0
   -0.1527    2.2081    3.5970 H   0  0  0
    0.3689    4.1141    5.0798 H   0  0  0
    0.2608    2.6055    6.0195 H   0  0  0
    2.2490    3.8598    6.7289 H   0  0  0
    3.9888    2.1268    6.1913 H   0  0  0
    2.4353    1.4117    6.6872 H   0  0  0
    3.3677    0.2754    4.6780 H   0  0  0
    3.3520    1.8260    3.8055 H   0  0  0
    5.3944    7.4171    2.8386 H   0  0  0
    4.5146    8.1151    6.9586 H   0  0  0
    3.3112    5.9931    7.0909 H   0  0  0
  1  2  1  0
  1 31  1  0
  1 32  1  0
  1 33  1  0
  2 12  4  0
  2  3  4  0
  3  4  4  0
  4  9  4  0
  4  5  1  0
  5  6  1  0
  5 34  1  0
  5 35  1  0
  6  7  1  0
  6 36  1  0
  6 37  1  0
  7  8  1  0
  7 38  1  0
  7 39  1  0
  8  9  1  0
  8 40  1  0
  8 41  1  0
  9 10  4  0
 10 11  2  0
 10 12  4  0
 12 13  1  0
 13 14  1  0
 13 42  1  0
 13 43  1  0
 14 15  1  0
 14 44  1  0
 14 45  1  0
 15 20  1  0
 15 16  1  0
 16 17  1  0
 16 46  1  0
 16 47  1  0
 17 18  1  0
 17 48  1  0
 17 49  1  0
 18 19  1  0
 18 21  1  0
 18 50  1  0
 19 20  1  0
 19 51  1  0
 19 52  1  0
 20 53  1  0
 20 54  1  0
 21 30  4  0
 21 22  4  0
 22 23  4  0
 23 24  4  0
 24 30  4  0
 24 25  4  0
 25 26  4  0
 25 55  1  0
 26 27  1  0
 26 28  4  0
 28 29  4  0
 28 56  1  0
 29 30  4  0
 29 57  1  0
M  END
$$$$
