Nc1ccc(cc1)S(=O)(=O)Nc2ncccn2
CHcorina  03230118583D 1   1.00000     0.00000     0
CORINA evaluation copy  2.4  150  11.12.1900 (2001-3)
 27 28  0  0  0  0              1 V2000
   -0.0169    1.3925    0.0097 N   0  0  0
    0.0021   -0.0041    0.0020 C   0  0  0
    1.2137   -0.6839   -0.0074 C   0  0  0
    1.2288   -2.0646   -0.0145 C   0  0  0
    0.0396   -2.7708   -0.0127 C   0  0  0
   -1.1679   -2.0974   -0.0038 C   0  0  0
   -1.1902   -0.7164    0.0096 C   0  0  0
    0.0635   -4.5326   -0.0224 S   0  0  0
   -1.1961   -4.9330   -0.5441 O   0  0  0
    1.3287   -4.8986   -0.5559 O   0  0  0
    0.0777   -5.0362    1.5551 N   0  0  0
   -0.9612   -4.6899    2.4015 C   0  0  0
   -1.9620   -3.9594    1.9318 N   0  0  0
   -2.9704   -3.6117    2.7139 C   0  0  0
   -2.9711   -4.0208    4.0384 C   0  0  0
   -1.9088   -4.7837    4.4968 C   0  0  0
   -0.9341   -5.1011    3.6606 N   0  0  0
    0.8165    1.8889    0.0044 H   0  0  0
   -0.8634    1.8661    0.0163 H   0  0  0
    2.1426   -0.1330   -0.0095 H   0  0  0
    2.1703   -2.5937   -0.0218 H   0  0  0
   -2.0947   -2.6519   -0.0031 H   0  0  0
   -2.1338   -0.1910    0.0169 H   0  0  0
    0.8141   -5.5739    1.8860 H   0  0  0
   -3.7831   -3.0160    2.3254 H   0  0  0
   -3.7818   -3.7506    4.6988 H   0  0  0
   -1.8791   -5.1184    5.5231 H   0  0  0
  1  2  1  0
  1 18  1  0
  1 19  1  0
  2  7  4  0
  2  3  4  0
  3  4  4  0
  3 20  1  0
  4  5  4  0
  4 21  1  0
  5  6  4  0
  5  8  1  0
  6  7  4  0
  6 22  1  0
  7 23  1  0
  8  9  2  0
  8 10  2  0
  8 11  1  0
 11 12  1  0
 11 24  1  0
 12 17  4  0
 12 13  4  0
 13 14  4  0
 14 15  4  0
 14 25  1  0
 15 16  4  0
 15 26  1  0
 16 17  4  0
 16 27  1  0
M  END
$$$$
