CNS(=O)(=O)c1ccc2[nH]cc(CCN(C)C)c2c1
CHcorina  03230118583D 1   1.00000     0.00000     0
CORINA evaluation copy  2.4  150  11.12.1900 (2001-3)
 38 39  0  0  0  0              1 V2000
   -0.0178    1.4608    0.0101 C   0  0  0
    0.0021   -0.0041    0.0020 N   0  0  0
   -1.4206   -0.8515    0.0111 S   0  0  0
   -1.0601   -2.2132   -0.1759 O   0  0  0
   -2.1670   -0.3413    1.1074 O   0  0  0
   -2.3173   -0.3910   -1.4341 C   0  0  0
   -3.1919    0.6862   -1.3878 C   0  0  0
   -3.9028    1.0626   -2.5060 C   0  0  0
   -3.7442    0.3580   -3.6951 C   0  0  0
   -4.2957    0.4813   -4.9507 N   0  0  0
   -4.9447    1.1536   -5.2107 H   0  0  0
   -3.7912   -0.4854   -5.7773 C   0  0  0
   -2.9169   -1.2512   -5.1056 C   0  0  0
   -2.1440   -2.4223   -5.6552 C   0  0  0
   -0.8116   -1.9318   -6.2252 C   0  0  0
   -0.0582   -3.0735   -6.7610 N   0  0  0
    1.2028   -2.5364   -7.2895 C   0  0  0
    0.2921   -3.9232   -5.6150 C   0  0  0
   -2.8565   -0.7324   -3.7370 C   0  0  0
   -2.1421   -1.0933   -2.5929 C   0  0  0
    1.0048    1.8381    0.0023 H   0  0  0
   -0.5450    1.8219   -0.8730 H   0  0  0
   -0.5280    1.8123    0.9069 H   0  0  0
    0.8486   -0.4776   -0.0086 H   0  0  0
   -3.3164    1.2344   -0.4657 H   0  0  0
   -4.5813    1.9016   -2.4597 H   0  0  0
   -4.0574   -0.6137   -6.8161 H   0  0  0
   -1.9555   -3.1401   -4.8569 H   0  0  0
   -2.7228   -2.9011   -6.4450 H   0  0  0
   -1.0001   -1.2141   -7.0236 H   0  0  0
   -0.2328   -1.4530   -5.4354 H   0  0  0
    1.8003   -3.3502   -7.7006 H   0  0  0
    0.9883   -1.8109   -8.0741 H   0  0  0
    1.7556   -2.0498   -6.4859 H   0  0  0
    0.8555   -4.7889   -5.9634 H   0  0  0
    0.8998   -3.3531   -4.9123 H   0  0  0
   -0.6189   -4.2582   -5.1191 H   0  0  0
   -1.4560   -1.9269   -2.6229 H   0  0  0
  1  2  1  0
  1 21  1  0
  1 22  1  0
  1 23  1  0
  2  3  1  0
  2 24  1  0
  3  4  2  0
  3  5  2  0
  3  6  1  0
  6 20  4  0
  6  7  4  0
  7  8  4  0
  7 25  1  0
  8  9  4  0
  8 26  1  0
  9 19  4  0
  9 10  4  0
 10 11  1  0
 10 12  4  0
 12 13  4  0
 12 27  1  0
 13 14  1  0
 13 19  4  0
 14 15  1  0
 14 28  1  0
 14 29  1  0
 15 16  1  0
 15 30  1  0
 15 31  1  0
 16 17  1  0
 16 18  1  0
 17 32  1  0
 17 33  1  0
 17 34  1  0
 18 35  1  0
 18 36  1  0
 18 37  1  0
 19 20  4  0
 20 38  1  0
M  END
$$$$
