CC(C)(C)c1ccc(cc1)C(O)CCCN2CCC(CC2)C(O)(c3ccccc3)c4ccccc4
CHcorina  03230118583D 1   1.00000     0.00000     0
CORINA evaluation copy  2.4  150  11.12.1900 (2001-3)
 76 79  0  0  0  0              1 V2000
   -6.6707    5.9896   -3.2310 C   0  0  0
   -5.8130    4.7331   -3.0688 C   0  0  0
   -5.0809    4.4424   -4.3804 C   0  0  0
   -4.7905    4.9542   -1.9522 C   0  0  0
   -6.6962    3.5639   -2.7167 C   0  0  0
   -8.0621    3.7409   -2.5966 C   0  0  0
   -8.8722    2.6687   -2.2737 C   0  0  0
   -8.3167    1.4189   -2.0713 C   0  0  0
   -6.9513    1.2417   -2.1923 C   0  0  0
   -6.1415    2.3134   -2.5195 C   0  0  0
   -9.1998    0.2499   -1.7183 C   0  0  0
   -8.6193   -0.9549   -2.2218 O   0  0  0
   -9.3351    0.1540   -0.1973 C   0  0  0
  -10.2318   -1.0328    0.1611 C   0  0  0
  -10.3670   -1.1288    1.6821 C   0  0  0
  -11.2279   -2.2683    2.0262 N   0  0  0
  -10.5151   -3.4782    1.6024 C   0  0  0
  -11.3513   -4.7151    1.9362 C   0  0  0
  -11.5622   -4.7866    3.4518 C   0  0  0
  -12.1959   -3.4756    3.9277 C   0  0  0
  -11.3156   -2.3034    3.4899 C   0  0  0
  -12.4916   -5.9554    3.7851 C   0  0  0
  -13.7732   -5.7280    3.1953 O   0  0  0
  -11.9073   -7.2331    3.2400 C   0  0  0
  -10.5955   -7.5680    3.5201 C   0  0  0
  -10.0596   -8.7398    3.0201 C   0  0  0
  -10.8354   -9.5773    2.2403 C   0  0  0
  -12.1471   -9.2429    1.9610 C   0  0  0
  -12.6845   -8.0728    2.4647 C   0  0  0
  -12.6398   -6.0687    5.2805 C   0  0  0
  -11.5165   -6.1081    6.0855 C   0  0  0
  -11.6524   -6.2120    7.4570 C   0  0  0
  -12.9118   -6.2760    8.0240 C   0  0  0
  -14.0348   -6.2357    7.2193 C   0  0  0
  -13.8989   -6.1275    5.8477 C   0  0  0
   -6.0319    6.8352   -3.4856 H   0  0  0
   -7.3991    5.8320   -4.0264 H   0  0  0
   -7.1922    6.1966   -2.2965 H   0  0  0
   -5.8093    4.2849   -5.1759 H   0  0  0
   -4.4421    5.2881   -4.6351 H   0  0  0
   -4.4698    3.5473   -4.2649 H   0  0  0
   -5.3120    5.1612   -1.0178 H   0  0  0
   -4.1794    4.0590   -1.8367 H   0  0  0
   -4.1517    5.7998   -2.2069 H   0  0  0
   -8.4961    4.7172   -2.7546 H   0  0  0
   -9.9391    2.8071   -2.1791 H   0  0  0
   -6.5173    0.2655   -2.0339 H   0  0  0
   -5.0746    2.1750   -2.6141 H   0  0  0
  -10.1851    0.3917   -2.1625 H   0  0  0
   -7.7512   -1.0423   -1.8049 H   0  0  0
   -8.3499    0.0121    0.2469 H   0  0  0
   -9.7780    1.0729    0.1867 H   0  0  0
  -11.2170   -0.8910   -0.2831 H   0  0  0
   -9.7889   -1.9518   -0.2230 H   0  0  0
   -9.3818   -1.2706    2.1262 H   0  0  0
  -10.8099   -0.2098    2.0661 H   0  0  0
  -10.3405   -3.4381    0.5272 H   0  0  0
   -9.5588   -3.5361    2.1221 H   0  0  0
  -12.3178   -4.6470    1.4368 H   0  0  0
  -10.8284   -5.6100    1.5987 H   0  0  0
  -10.6020   -4.9289    3.9476 H   0  0  0
  -13.1878   -3.3701    3.4884 H   0  0  0
  -12.2771   -3.4840    5.0146 H   0  0  0
  -10.3170   -2.4233    3.9100 H   0  0  0
  -11.7494   -1.3703    3.8495 H   0  0  0
  -13.6338   -5.6618    2.2407 H   0  0  0
   -9.9894   -6.9137    4.1292 H   0  0  0
   -9.0346   -9.0010    3.2383 H   0  0  0
  -10.4165  -10.4926    1.8491 H   0  0  0
  -12.7531   -9.8970    1.3516 H   0  0  0
  -13.7095   -7.8116    2.2465 H   0  0  0
  -10.5328   -6.0580    5.6426 H   0  0  0
  -10.7749   -6.2435    8.0857 H   0  0  0
  -13.0179   -6.3580    9.0956 H   0  0  0
  -15.0185   -6.2861    7.6622 H   0  0  0
  -14.7764   -6.0959    5.2189 H   0  0  0
  1  2  1  0
  1 36  1  0
  1 37  1  0
  1 38  1  0
  2  3  1  0
  2  4  1  0
  2  5  1  0
  3 39  1  0
  3 40  1  0
  3 41  1  0
  4 42  1  0
  4 43  1  0
  4 44  1  0
  5 10  4  0
  5  6  4  0
  6  7  4  0
  6 45  1  0
  7  8  4  0
  7 46  1  0
  8  9  4  0
  8 11  1  0
  9 10  4  0
  9 47  1  0
 10 48  1  0
 11 12  1  0
 11 13  1  0
 11 49  1  0
 12 50  1  0
 13 14  1  0
 13 51  1  0
 13 52  1  0
 14 15  1  0
 14 53  1  0
 14 54  1  0
 15 16  1  0
 15 55  1  0
 15 56  1  0
 16 21  1  0
 16 17  1  0
 17 18  1  0
 17 57  1  0
 17 58  1  0
 18 19  1  0
 18 59  1  0
 18 60  1  0
 19 20  1  0
 19 22  1  0
 19 61  1  0
 20 21  1  0
 20 62  1  0
 20 63  1  0
 21 64  1  0
 21 65  1  0
 22 23  1  0
 22 24  1  0
 22 30  1  0
 23 66  1  0
 24 29  4  0
 24 25  4  0
 25 26  4  0
 25 67  1  0
 26 27  4  0
 26 68  1  0
 27 28  4  0
 27 69  1  0
 28 29  4  0
 28 70  1  0
 29 71  1  0
 30 35  4  0
 30 31  4  0
 31 32  4  0
 31 72  1  0
 32 33  4  0
 32 73  1  0
 33 34  4  0
 33 74  1  0
 34 35  4  0
 34 75  1  0
 35 76  1  0
M  END
$$$$
CC(C)(C)c1ccc(cc1)C(O)CCCN2CCC(CC2)C(O)(c3ccccc3)c4ccccc4
CHcorina  03230118583D 1   1.00000     3.00000     0
CORINA evaluation copy  2.4  150  11.12.1900 (2001-3)
 76 79  0  0  0  0              1 V2000
   -1.1165    6.7143    3.7294 C   0  0  0
   -0.3127    5.4264    3.5384 C   0  0  0
    0.7790    5.6571    2.4916 C   0  0  0
    0.3313    5.0254    4.8671 C   0  0  0
   -1.2307    4.3258    3.0727 C   0  0  0
   -2.5757    4.5821    2.8813 C   0  0  0
   -3.4176    3.5726    2.4542 C   0  0  0
   -2.9147    2.3066    2.2179 C   0  0  0
   -1.5699    2.0506    2.4083 C   0  0  0
   -0.7269    3.0615    2.8315 C   0  0  0
   -3.8328    1.2057    1.7531 C   0  0  0
   -3.1000    0.2844    0.9430 O   0  0  0
   -4.4059    0.4728    2.9677 C   0  0  0
   -5.3381   -0.6449    2.4959 C   0  0  0
   -5.9112   -1.3779    3.7105 C   0  0  0
   -6.8062   -2.4510    3.2574 N   0  0  0
   -7.8981   -1.8062    2.5202 C   0  0  0
   -8.4542   -0.6376    3.3362 C   0  0  0
   -9.0144   -1.1686    4.6594 C   0  0  0
   -7.9161   -1.9515    5.3856 C   0  0  0
   -7.3881   -3.0515    4.4626 C   0  0  0
   -9.4691    0.0040    5.5306 C   0  0  0
   -8.3537    0.8539    5.8053 O   0  0  0
  -10.5309    0.7881    4.8033 C   0  0  0
  -11.6465    0.1423    4.3034 C   0  0  0
  -12.6203    0.8614    3.6364 C   0  0  0
  -12.4790    2.2265    3.4693 C   0  0  0
  -11.3641    2.8722    3.9698 C   0  0  0
  -10.3921    2.1536    4.6408 C   0  0  0
  -10.0316   -0.5213    6.8262 C   0  0  0
  -10.9608   -1.5449    6.8119 C   0  0  0
  -11.4766   -2.0267    8.0002 C   0  0  0
  -11.0631   -1.4852    9.2033 C   0  0  0
  -10.1335   -0.4625    9.2177 C   0  0  0
   -9.6143    0.0165    8.0292 C   0  0  0
   -0.4525    7.5104    4.0662 H   0  0  0
   -1.5752    6.9999    2.7828 H   0  0  0
   -1.8942    6.5499    4.4751 H   0  0  0
    0.3202    5.9428    1.5450 H   0  0  0
    1.4430    6.4532    2.8284 H   0  0  0
    1.3516    4.7397    2.3556 H   0  0  0
   -0.4465    4.8611    5.6128 H   0  0  0
    0.9039    4.1080    4.7310 H   0  0  0
    0.9952    5.8216    5.2039 H   0  0  0
   -2.9686    5.5710    3.0659 H   0  0  0
   -4.4685    3.7726    2.3054 H   0  0  0
   -1.1770    1.0616    2.2240 H   0  0  0
    0.3239    2.8615    2.9803 H   0  0  0
   -4.6476    1.6342    1.1696 H   0  0  0
   -2.3905   -0.0708    1.4958 H   0  0  0
   -3.5911    0.0442    3.5513 H   0  0  0
   -4.9649    1.1755    3.5856 H   0  0  0
   -6.1529   -0.2164    1.9123 H   0  0  0
   -4.7791   -1.3476    1.8779 H   0  0  0
   -5.0964   -1.8064    4.2940 H   0  0  0
   -6.4702   -0.6752    4.3284 H   0  0  0
   -7.5222   -1.4358    1.5665 H   0  0  0
   -8.6911   -2.5316    2.3391 H   0  0  0
   -7.6565    0.0770    3.5392 H   0  0  0
   -9.2494   -0.1472    2.7748 H   0  0  0
   -9.8603   -1.8265    4.4597 H   0  0  0
   -7.1022   -1.2765    5.6504 H   0  0  0
   -8.3265   -2.4008    6.2899 H   0  0  0
   -8.2081   -3.7112    4.1790 H   0  0  0
   -6.6246   -3.6277    4.9852 H   0  0  0
   -8.0245    1.1677    4.9519 H   0  0  0
  -11.7569   -0.9241    4.4339 H   0  0  0
  -13.4914    0.3568    3.2453 H   0  0  0
  -13.2395    2.7883    2.9475 H   0  0  0
  -11.2536    3.9386    3.8390 H   0  0  0
   -9.5210    2.6582    5.0319 H   0  0  0
  -11.2838   -1.9679    5.8721 H   0  0  0
  -12.2030   -2.8258    7.9890 H   0  0  0
  -11.4667   -1.8612   10.1318 H   0  0  0
   -9.8107   -0.0393   10.1574 H   0  0  0
   -8.8879    0.8156    8.0404 H   0  0  0
  1  2  1  0
  1 36  1  0
  1 37  1  0
  1 38  1  0
  2  3  1  0
  2  4  1  0
  2  5  1  0
  3 39  1  0
  3 40  1  0
  3 41  1  0
  4 42  1  0
  4 43  1  0
  4 44  1  0
  5 10  4  0
  5  6  4  0
  6  7  4  0
  6 45  1  0
  7  8  4  0
  7 46  1  0
  8  9  4  0
  8 11  1  0
  9 10  4  0
  9 47  1  0
 10 48  1  0
 11 12  1  0
 11 13  1  0
 11 49  1  0
 12 50  1  0
 13 14  1  0
 13 51  1  0
 13 52  1  0
 14 15  1  0
 14 53  1  0
 14 54  1  0
 15 16  1  0
 15 55  1  0
 15 56  1  0
 16 21  1  0
 16 17  1  0
 17 18  1  0
 17 57  1  0
 17 58  1  0
 18 19  1  0
 18 59  1  0
 18 60  1  0
 19 20  1  0
 19 22  1  0
 19 61  1  0
 20 21  1  0
 20 62  1  0
 20 63  1  0
 21 64  1  0
 21 65  1  0
 22 23  1  0
 22 24  1  0
 22 30  1  0
 23 66  1  0
 24 29  4  0
 24 25  4  0
 25 26  4  0
 25 67  1  0
 26 27  4  0
 26 68  1  0
 27 28  4  0
 27 69  1  0
 28 29  4  0
 28 70  1  0
 29 71  1  0
 30 35  4  0
 30 31  4  0
 31 32  4  0
 31 72  1  0
 32 33  4  0
 32 73  1  0
 33 34  4  0
 33 74  1  0
 34 35  4  0
 34 75  1  0
 35 76  1  0
M  END
$$$$
CC(C)(C)c1ccc(cc1)C(O)CCCN2CCC(CC2)C(O)(c3ccccc3)c4ccccc4
CHcorina  03230118583D 1   1.00000    23.00000     0
CORINA evaluation copy  2.4  150  11.12.1900 (2001-3)
 76 79  0  0  0  0              1 V2000
   -6.1085    8.7149    3.4482 C   0  0  0
   -5.1451    7.5282    3.3827 C   0  0  0
   -4.0865    7.7893    2.3093 C   0  0  0
   -4.4619    7.3503    4.7401 C   0  0  0
   -5.9117    6.2772    3.0384 C   0  0  0
   -7.2775    6.3381    2.8326 C   0  0  0
   -7.9806    5.1908    2.5169 C   0  0  0
   -7.3180    3.9824    2.4063 C   0  0  0
   -5.9525    3.9217    2.6112 C   0  0  0
   -5.2485    5.0701    2.9228 C   0  0  0
   -8.0847    2.7313    2.0630 C   0  0  0
   -7.2354    1.8341    1.3449 O   0  0  0
   -8.5654    2.0583    3.3503 C   0  0  0
   -9.3438    0.7881    3.0017 C   0  0  0
   -9.8244    0.1151    4.2889 C   0  0  0
  -10.4651   -1.1658    3.9621 N   0  0  0
  -11.5933   -0.8590    3.0785 C   0  0  0
  -12.1612   -2.1584    2.5001 C   0  0  0
  -12.0755   -3.2483    3.5756 C   0  0  0
  -12.2194   -2.5819    4.9483 C   0  0  0
  -11.0001   -1.7008    5.2159 C   0  0  0
  -13.2041   -4.2613    3.3738 C   0  0  0
  -14.4650   -3.6074    3.5309 O   0  0  0
  -13.1114   -4.8473    1.9884 C   0  0  0
  -11.8954   -5.2968    1.5080 C   0  0  0
  -11.8103   -5.8342    0.2375 C   0  0  0
  -12.9413   -5.9227   -0.5528 C   0  0  0
  -14.1571   -5.4742   -0.0722 C   0  0  0
  -14.2430   -4.9406    1.2003 C   0  0  0
  -13.0789   -5.3629    4.3945 C   0  0  0
  -11.8704   -6.0121    4.5663 C   0  0  0
  -11.7556   -7.0223    5.5024 C   0  0  0
  -12.8491   -7.3834    6.2675 C   0  0  0
  -14.0570   -6.7338    6.0965 C   0  0  0
  -14.1707   -5.7203    5.1630 C   0  0  0
   -5.5540    9.6197    3.6973 H   0  0  0
   -6.5952    8.8417    2.4812 H   0  0  0
   -6.8627    8.5289    4.2129 H   0  0  0
   -4.5732    7.9160    1.3423 H   0  0  0
   -3.5321    8.6941    2.5583 H   0  0  0
   -3.4002    6.9438    2.2626 H   0  0  0
   -5.2160    7.1643    5.5048 H   0  0  0
   -3.7756    6.5049    4.6934 H   0  0  0
   -3.9074    8.2551    4.9891 H   0  0  0
   -7.7951    7.2821    2.9189 H   0  0  0
   -9.0476    5.2382    2.3568 H   0  0  0
   -5.4350    2.9777    2.5252 H   0  0  0
   -4.1815    5.0227    3.0829 H   0  0  0
   -8.9448    2.9902    1.4454 H   0  0  0
   -6.4891    1.6309    1.9252 H   0  0  0
   -7.7053    1.7994    3.9679 H   0  0  0
   -9.2132    2.7427    3.8980 H   0  0  0
  -10.2038    1.0470    2.3841 H   0  0  0
   -8.6960    0.1037    2.4539 H   0  0  0
   -8.9731   -0.0617    4.9462 H   0  0  0
  -10.5429    0.7629    4.7912 H   0  0  0
  -12.3691   -0.3449    3.6459 H   0  0  0
  -11.2532   -0.2180    2.2651 H   0  0  0
  -13.2020   -2.0077    2.2134 H   0  0  0
  -11.5785   -2.4570    1.6287 H   0  0  0
  -11.1111   -3.7522    3.5115 H   0  0  0
  -13.1208   -1.9692    4.9623 H   0  0  0
  -12.2899   -3.3491    5.7193 H   0  0  0
  -10.2306   -2.2924    5.7119 H   0  0  0
  -11.2890   -0.8744    5.8653 H   0  0  0
  -14.5462   -2.9779    2.8014 H   0  0  0
  -11.0120   -5.2276    2.1253 H   0  0  0
  -10.8603   -6.1846   -0.1381 H   0  0  0
  -12.8747   -6.3420   -1.5459 H   0  0  0
  -15.0405   -5.5431   -0.6897 H   0  0  0
  -15.1930   -4.5901    1.5759 H   0  0  0
  -11.0162   -5.7300    3.9686 H   0  0  0
  -10.8117   -7.5300    5.6361 H   0  0  0
  -12.7595   -8.1733    6.9986 H   0  0  0
  -14.9113   -7.0161    6.6939 H   0  0  0
  -15.1146   -5.2127    5.0293 H   0  0  0
  1  2  1  0
  1 36  1  0
  1 37  1  0
  1 38  1  0
  2  3  1  0
  2  4  1  0
  2  5  1  0
  3 39  1  0
  3 40  1  0
  3 41  1  0
  4 42  1  0
  4 43  1  0
  4 44  1  0
  5 10  4  0
  5  6  4  0
  6  7  4  0
  6 45  1  0
  7  8  4  0
  7 46  1  0
  8  9  4  0
  8 11  1  0
  9 10  4  0
  9 47  1  0
 10 48  1  0
 11 12  1  0
 11 13  1  0
 11 49  1  0
 12 50  1  0
 13 14  1  0
 13 51  1  0
 13 52  1  0
 14 15  1  0
 14 53  1  0
 14 54  1  0
 15 16  1  0
 15 55  1  0
 15 56  1  0
 16 21  1  0
 16 17  1  0
 17 18  1  0
 17 57  1  0
 17 58  1  0
 18 19  1  0
 18 59  1  0
 18 60  1  0
 19 20  1  0
 19 22  1  0
 19 61  1  0
 20 21  1  0
 20 62  1  0
 20 63  1  0
 21 64  1  0
 21 65  1  0
 22 23  1  0
 22 24  1  0
 22 30  1  0
 23 66  1  0
 24 29  4  0
 24 25  4  0
 25 26  4  0
 25 67  1  0
 26 27  4  0
 26 68  1  0
 27 28  4  0
 27 69  1  0
 28 29  4  0
 28 70  1  0
 29 71  1  0
 30 35  4  0
 30 31  4  0
 31 32  4  0
 31 72  1  0
 32 33  4  0
 32 73  1  0
 33 34  4  0
 33 74  1  0
 34 35  4  0
 34 75  1  0
 35 76  1  0
M  END
$$$$
