c1nc(cs1)c2nc3ccccc3[nH]2
CHcorina  02130121013D 1   1.00000     0.00000     0
CORINA evaluation copy  2.4  150  11.12.1900 (2001-3)
 21 23  0  0  0  0              1 V2000
   -0.0215    1.7318    0.0116 C   0  0  0
    1.2525    2.0335    0.0010 N   0  0  0
    2.1871    1.0931   -0.0130 C   0  0  0
    1.7761   -0.2164   -0.0161 C   0  0  0
    0.0021   -0.0041    0.0020 S   0  0  0
    3.6216    1.4429   -0.0253 C   0  0  0
    4.6089    0.5793   -0.0455 N   0  0  0
    5.7926    1.2407   -0.0516 C   0  0  0
    7.1266    0.8217   -0.0706 C   0  0  0
    8.1312    1.7477   -0.0715 C   0  0  0
    7.8428    3.1047   -0.0534 C   0  0  0
    6.5344    3.5412   -0.0340 C   0  0  0
    5.5005    2.6157   -0.0337 C   0  0  0
    4.1219    2.7177   -0.0232 N   0  0  0
    3.6054    3.5388   -0.0136 H   0  0  0
   -0.8730    2.3959    0.0271 H   0  0  0
    2.3623   -1.1234   -0.0268 H   0  0  0
    7.3624   -0.2321   -0.0841 H   0  0  0
    9.1602    1.4200   -0.0862 H   0  0  0
    8.6482    3.8242   -0.0540 H   0  0  0
    6.3157    4.5987   -0.0192 H   0  0  0
  1  5  4  0
  1  2  4  0
  1 16  1  0
  2  3  4  0
  3  4  4  0
  3  6  1  0
  4  5  4  0
  4 17  1  0
  6 14  4  0
  6  7  4  0
  7  8  4  0
  8 13  4  0
  8  9  4  0
  9 10  4  0
  9 18  1  0
 10 11  4  0
 10 19  1  0
 11 12  4  0
 11 20  1  0
 12 13  4  0
 12 21  1  0
 13 14  4  0
 14 15  1  0
M  END
$$$$
