COc1ccc(CCN(C)CCCC(C#N)(C(C)C)c2ccc(OC)c(OC)c2)cc1OC
CHcorina  03230118583D 1   1.00000     0.00000     0
CORINA evaluation copy  2.4  150  11.12.1900 (2001-3)
 71 72  0  0  0  0              1 V2000
   -0.6307    2.7186   -0.3222 C   0  0  0
   -0.5469    1.3140   -0.0727 O   0  0  0
   -1.8213    0.8393   -0.0659 C   0  0  0
   -2.8843    1.7007   -0.2850 C   0  0  0
   -4.1791    1.2164   -0.2782 C   0  0  0
   -4.4169   -0.1267   -0.0528 C   0  0  0
   -5.8304   -0.6493   -0.0460 C   0  0  0
   -6.2219   -1.0794   -1.4611 C   0  0  0
   -7.5997   -1.5888   -1.4545 N   0  0  0
   -8.4695   -0.4492   -1.1340 C   0  0  0
   -7.9110   -1.9823   -2.8351 C   0  0  0
   -9.3399   -2.5251   -2.9009 C   0  0  0
   -9.6641   -2.9349   -4.3389 C   0  0  0
  -11.0226   -3.6379   -4.3750 C   0  0  0
  -11.0106   -4.7768   -3.4424 C   0  0  0
  -11.0014   -5.6556   -2.7228 N   0  0  0
  -12.1178   -2.6524   -3.9625 C   0  0  0
  -12.2201   -2.6131   -2.4365 C   0  0  0
  -11.7723   -1.2572   -4.4867 C   0  0  0
  -11.2940   -4.1350   -5.7715 C   0  0  0
  -12.4396   -3.7365   -6.4350 C   0  0  0
  -12.6930   -4.1894   -7.7163 C   0  0  0
  -11.7977   -5.0446   -8.3385 C   0  0  0
  -12.0452   -5.4907   -9.5991 O   0  0  0
  -13.2859   -4.9103  -10.0065 C   0  0  0
  -10.6446   -5.4457   -7.6707 C   0  0  0
   -9.7627   -6.2846   -8.2773 O   0  0  0
   -8.6987   -6.5064   -7.3496 C   0  0  0
  -10.3941   -4.9839   -6.3885 C   0  0  0
   -3.3608   -0.9916    0.1660 C   0  0  0
   -2.0602   -0.5136    0.1553 C   0  0  0
   -1.0202   -1.3631    0.3699 O   0  0  0
   -1.5822   -2.6613    0.5724 C   0  0  0
    0.3721    3.1455   -0.3368 H   0  0  0
   -1.1120    2.8885   -1.2853 H   0  0  0
   -1.2162    3.1932    0.4653 H   0  0  0
   -2.7013    2.7505   -0.4607 H   0  0  0
   -5.0068    1.8888   -0.4491 H   0  0  0
   -5.8982   -1.5050    0.6257 H   0  0  0
   -6.5060    0.1350    0.2954 H   0  0  0
   -6.1541   -0.2237   -2.1328 H   0  0  0
   -5.5462   -1.8637   -1.8024 H   0  0  0
   -9.5085   -0.7785   -1.1172 H   0  0  0
   -8.1992   -0.0493   -0.1567 H   0  0  0
   -8.3463    0.3259   -1.8904 H   0  0  0
   -7.8214   -1.1149   -3.4891 H   0  0  0
   -7.2135   -2.7549   -3.1588 H   0  0  0
   -9.4295   -3.3925   -2.2470 H   0  0  0
  -10.0374   -1.7525   -2.5773 H   0  0  0
   -9.6973   -2.0475   -4.9709 H   0  0  0
   -8.8940   -3.6136   -4.7057 H   0  0  0
  -13.0714   -2.9724   -4.3825 H   0  0  0
  -13.0597   -1.9821   -2.1448 H   0  0  0
  -12.3753   -3.6229   -2.0565 H   0  0  0
  -11.2983   -2.2062   -2.0209 H   0  0  0
  -10.7853   -0.9677   -4.1259 H   0  0  0
  -11.7719   -1.2683   -5.5766 H   0  0  0
  -12.5135   -0.5415   -4.1309 H   0  0  0
  -13.1384   -3.0703   -5.9510 H   0  0  0
  -13.5888   -3.8769   -8.2322 H   0  0  0
  -13.5273   -5.2409  -11.0167 H   0  0  0
  -14.0752   -5.2237   -9.3233 H   0  0  0
  -13.2014   -3.8237   -9.9902 H   0  0  0
   -7.9630   -7.1768   -7.7940 H   0  0  0
   -8.2240   -5.5556   -7.1071 H   0  0  0
   -9.0973   -6.9559   -6.4401 H   0  0  0
   -9.4999   -5.2937   -5.8680 H   0  0  0
   -3.5492   -2.0404    0.3416 H   0  0  0
   -0.7821   -3.3801    0.7493 H   0  0  0
   -2.2477   -2.6386    1.4354 H   0  0  0
   -2.1456   -2.9554   -0.3132 H   0  0  0
  1  2  1  0
  1 34  1  0
  1 35  1  0
  1 36  1  0
  2  3  1  0
  3 31  4  0
  3  4  4  0
  4  5  4  0
  4 37  1  0
  5  6  4  0
  5 38  1  0
  6  7  1  0
  6 30  4  0
  7  8  1  0
  7 39  1  0
  7 40  1  0
  8  9  1  0
  8 41  1  0
  8 42  1  0
  9 10  1  0
  9 11  1  0
 10 43  1  0
 10 44  1  0
 10 45  1  0
 11 12  1  0
 11 46  1  0
 11 47  1  0
 12 13  1  0
 12 48  1  0
 12 49  1  0
 13 14  1  0
 13 50  1  0
 13 51  1  0
 14 15  1  0
 14 17  1  0
 14 20  1  0
 15 16  3  0
 17 18  1  0
 17 19  1  0
 17 52  1  0
 18 53  1  0
 18 54  1  0
 18 55  1  0
 19 56  1  0
 19 57  1  0
 19 58  1  0
 20 29  4  0
 20 21  4  0
 21 22  4  0
 21 59  1  0
 22 23  4  0
 22 60  1  0
 23 24  1  0
 23 26  4  0
 24 25  1  0
 25 61  1  0
 25 62  1  0
 25 63  1  0
 26 27  1  0
 26 29  4  0
 27 28  1  0
 28 64  1  0
 28 65  1  0
 28 66  1  0
 29 67  1  0
 30 31  4  0
 30 68  1  0
 31 32  1  0
 32 33  1  0
 33 69  1  0
 33 70  1  0
 33 71  1  0
M  END
$$$$
