O=C1CC2(CCCC2)CC(=O)N1CCCN3CCN(CC3)c4ncccn4
CHcorina  02210111253D 1   1.00000     0.00000     0
CORINA evaluation copy  2.4  150  11.12.1900 (2001-3)
 56 59  0  0  0  0              1 V2000
    0.0021   -0.0041    0.0020 O   0  0  0
   -0.0144    1.2081    0.0087 C   0  0  0
   -1.3373    1.9288    0.0314 C   0  0  0
   -1.1616    3.2797    0.7233 C   0  0  0
   -2.4720    4.0769    0.6688 C   0  0  0
   -2.8942    4.3244    2.1329 C   0  0  0
   -1.5721    4.2172    2.9333 C   0  0  0
   -0.8251    3.0680    2.2099 C   0  0  0
   -0.0403    4.0629    0.0422 C   0  0  0
    1.2089    3.2210    0.0192 C   0  0  0
    2.2924    3.7647    0.0217 O   0  0  0
    1.1454    1.8815    0.0012 N   0  0  0
    2.3969    1.1210   -0.0394 C   0  0  0
    2.8666    0.8353    1.3884 C   0  0  0
    4.1737    0.0411    1.3461 C   0  0  0
    4.6246   -0.2332    2.7169 N   0  0  0
    4.9654    1.0629    3.3163 C   0  0  0
    5.5607    0.8453    4.7078 C   0  0  0
    6.8117    0.0852    4.5963 N   0  0  0
    6.4709   -1.2109    3.9970 C   0  0  0
    5.8756   -0.9933    2.6054 C   0  0  0
    7.2366   -0.1733    5.8879 C   0  0  0
    6.5100    0.2616    6.9070 N   0  0  0
    6.8875    0.0312    8.1535 C   0  0  0
    8.0581   -0.6740    8.3861 C   0  0  0
    8.7938   -1.1142    7.2974 C   0  0  0
    8.3573   -0.8543    6.0759 N   0  0  0
   -1.6844    2.0852   -0.9899 H   0  0  0
   -2.0677    1.3321    0.5778 H   0  0  0
   -2.3105    5.0275    0.1605 H   0  0  0
   -3.2388    3.5009    0.1508 H   0  0  0
   -3.3267    5.3189    2.2423 H   0  0  0
   -3.6011    3.5619    2.4601 H   0  0  0
   -1.0057    5.1463    2.8695 H   0  0  0
   -1.7700    3.9550    3.9726 H   0  0  0
   -1.1925    2.0999    2.5505 H   0  0  0
    0.2495    3.1487    2.3734 H   0  0  0
   -0.3342    4.3063   -0.9788 H   0  0  0
    0.1503    4.9821    0.5961 H   0  0  0
    2.2330    0.1793   -0.5632 H   0  0  0
    3.1573    1.7005   -0.5629 H   0  0  0
    3.0305    1.7770    1.9123 H   0  0  0
    2.1062    0.2559    1.9120 H   0  0  0
    4.0098   -0.9006    0.8222 H   0  0  0
    4.9341    0.6206    0.8225 H   0  0  0
    5.6934    1.5738    2.6861 H   0  0  0
    4.0657    1.6727    3.3979 H   0  0  0
    5.7631    1.8111    5.1710 H   0  0  0
    4.8524    0.2900    5.3227 H   0  0  0
    7.3707   -1.8207    3.9154 H   0  0  0
    5.7429   -1.7218    4.6271 H   0  0  0
    5.6733   -1.9591    2.1423 H   0  0  0
    6.5840   -0.4380    1.9905 H   0  0  0
    6.2912    0.3885    8.9801 H   0  0  0
    8.3896   -0.8757    9.3940 H   0  0  0
    9.7103   -1.6663    7.4443 H   0  0  0
  1  2  2  0
  2 12  1  0
  2  3  1  0
  3  4  1  0
  3 28  1  0
  3 29  1  0
  4  8  1  0
  4  5  1  0
  4  9  1  0
  5  6  1  0
  5 30  1  0
  5 31  1  0
  6  7  1  0
  6 32  1  0
  6 33  1  0
  7  8  1  0
  7 34  1  0
  7 35  1  0
  8 36  1  0
  8 37  1  0
  9 10  1  0
  9 38  1  0
  9 39  1  0
 10 11  2  0
 10 12  1  0
 12 13  1  0
 13 14  1  0
 13 40  1  0
 13 41  1  0
 14 15  1  0
 14 42  1  0
 14 43  1  0
 15 16  1  0
 15 44  1  0
 15 45  1  0
 16 21  1  0
 16 17  1  0
 17 18  1  0
 17 46  1  0
 17 47  1  0
 18 19  1  0
 18 48  1  0
 18 49  1  0
 19 20  1  0
 19 22  1  0
 20 21  1  0
 20 50  1  0
 20 51  1  0
 21 52  1  0
 21 53  1  0
 22 27  4  0
 22 23  4  0
 23 24  4  0
 24 25  4  0
 24 54  1  0
 25 26  4  0
 25 55  1  0
 26 27  4  0
 26 56  1  0
M  END
$$$$
O=C1CC2(CCCC2)CC(=O)N1CCCN3CCN(CC3)c4ncccn4
CHcorina  02210111253D 1   1.00000     3.00000     0
CORINA evaluation copy  2.4  150  11.12.1900 (2001-3)
 56 59  0  0  0  0              1 V2000
    0.0011    0.6253    0.1107 O   0  0  0
    0.1875    1.8216    0.0514 C   0  0  0
   -0.9949    2.7551    0.0671 C   0  0  0
   -0.6372    4.0323   -0.6913 C   0  0  0
   -0.4405    3.7248   -2.1822 C   0  0  0
   -1.4899    4.5627   -2.9435 C   0  0  0
   -1.8170    5.7300   -1.9789 C   0  0  0
   -1.7920    5.0443   -0.5893 C   0  0  0
    0.6381    4.6366   -0.1059 C   0  0  0
    1.7278    3.5962   -0.1120 C   0  0  0
    2.8849    3.9478   -0.1955 O   0  0  0
    1.4426    2.2888   -0.0212 N   0  0  0
    2.5493    1.3290   -0.0130 C   0  0  0
    2.9984    1.0808    1.4284 C   0  0  0
    4.1543    0.0784    1.4370 C   0  0  0
    4.5855   -0.1599    2.8209 N   0  0  0
    3.5239   -0.9435    3.4646 C   0  0  0
    3.2106   -2.1777    2.6181 C   0  0  0
    4.3953   -3.0419    2.5479 N   0  0  0
    5.4569   -2.2584    1.9043 C   0  0  0
    5.7702   -1.0241    2.7508 C   0  0  0
    4.0830   -4.0754    1.6819 C   0  0  0
    2.8863   -4.1038    1.1136 N   0  0  0
    2.5562   -5.0770    0.2810 C   0  0  0
    3.4793   -6.0740    0.0062 C   0  0  0
    4.7214   -6.0136    0.6177 C   0  0  0
    4.9895   -5.0099    1.4367 N   0  0  0
   -1.8463    2.2727   -0.4132 H   0  0  0
   -1.2500    3.0027    1.0975 H   0  0  0
    0.5641    4.0108   -2.4937 H   0  0  0
   -0.6019    2.6632   -2.3696 H   0  0  0
   -1.0716    4.9432   -3.8754 H   0  0  0
   -2.3824    3.9689   -3.1408 H   0  0  0
   -1.0552    6.5072   -2.0402 H   0  0  0
   -2.8044    6.1406   -2.1897 H   0  0  0
   -2.7345    4.5307   -0.3996 H   0  0  0
   -1.5914    5.7753    0.1940 H   0  0  0
    0.9466    5.4907   -0.7088 H   0  0  0
    0.4507    4.9618    0.9175 H   0  0  0
    2.2193    0.3900   -0.4575 H   0  0  0
    3.3828    1.7306   -0.5892 H   0  0  0
    3.3285    2.0197    1.8729 H   0  0  0
    2.1649    0.6792    2.0046 H   0  0  0
    3.8243   -0.8606    0.9925 H   0  0  0
    4.9878    0.4800    0.8608 H   0  0  0
    3.8541   -1.2570    4.4549 H   0  0  0
    2.6272   -0.3309    3.5587 H   0  0  0
    2.3861   -2.7285    3.0709 H   0  0  0
    2.9289   -1.8659    1.6123 H   0  0  0
    6.3536   -2.8709    1.8101 H   0  0  0
    5.1267   -1.9449    0.9139 H   0  0  0
    6.5947   -0.4734    2.2980 H   0  0  0
    6.0519   -1.3359    3.7565 H   0  0  0
    1.5791   -5.0949   -0.1789 H   0  0  0
    3.2356   -6.8804   -0.6696 H   0  0  0
    5.4631   -6.7747    0.4249 H   0  0  0
  1  2  2  0
  2 12  1  0
  2  3  1  0
  3  4  1  0
  3 28  1  0
  3 29  1  0
  4  8  1  0
  4  5  1  0
  4  9  1  0
  5  6  1  0
  5 30  1  0
  5 31  1  0
  6  7  1  0
  6 32  1  0
  6 33  1  0
  7  8  1  0
  7 34  1  0
  7 35  1  0
  8 36  1  0
  8 37  1  0
  9 10  1  0
  9 38  1  0
  9 39  1  0
 10 11  2  0
 10 12  1  0
 12 13  1  0
 13 14  1  0
 13 40  1  0
 13 41  1  0
 14 15  1  0
 14 42  1  0
 14 43  1  0
 15 16  1  0
 15 44  1  0
 15 45  1  0
 16 21  1  0
 16 17  1  0
 17 18  1  0
 17 46  1  0
 17 47  1  0
 18 19  1  0
 18 48  1  0
 18 49  1  0
 19 20  1  0
 19 22  1  0
 20 21  1  0
 20 50  1  0
 20 51  1  0
 21 52  1  0
 21 53  1  0
 22 27  4  0
 22 23  4  0
 23 24  4  0
 24 25  4  0
 24 54  1  0
 25 26  4  0
 25 55  1  0
 26 27  4  0
 26 56  1  0
M  END
$$$$
O=C1CC2(CCCC2)CC(=O)N1CCCN3CCN(CC3)c4ncccn4
CHcorina  02210111253D 1   1.00000     6.00000     0
CORINA evaluation copy  2.4  150  11.12.1900 (2001-3)
 56 59  0  0  0  0              1 V2000
   -0.0781    0.2615    0.1258 O   0  0  0
   -0.0642    1.4733    0.1582 C   0  0  0
   -1.3681    2.2256    0.2201 C   0  0  0
   -1.1467    3.5569    0.9363 C   0  0  0
   -2.4408    4.3890    0.9100 C   0  0  0
   -2.4651    5.0932    2.2903 C   0  0  0
   -1.9029    4.0059    3.2401 C   0  0  0
   -0.8003    3.3126    2.4115 C   0  0  0
   -0.0184    4.3266    0.2514 C   0  0  0
    1.2088    3.4549    0.1880 C   0  0  0
    2.3053    3.9717    0.1818 O   0  0  0
    1.1116    2.1181    0.1438 N   0  0  0
    2.3429    1.3282    0.0639 C   0  0  0
    2.8316    1.0012    1.4764 C   0  0  0
    4.1175    0.1763    1.3930 C   0  0  0
    4.5867   -0.1376    2.7492 N   0  0  0
    4.9706    1.1370    3.3683 C   0  0  0
    5.5859    0.8758    4.7436 C   0  0  0
    6.8153    0.0878    4.5928 N   0  0  0
    6.4314   -1.1868    3.9737 C   0  0  0
    5.8161   -0.9256    2.5984 C   0  0  0
    7.6051    0.7550    3.6726 C   0  0  0
    7.5615    2.0784    3.6219 N   0  0  0
    8.3037    2.7465    2.7547 C   0  0  0
    9.1333    2.0455    1.8933 C   0  0  0
    9.1543    0.6621    1.9732 C   0  0  0
    8.3906    0.0556    2.8671 N   0  0  0
   -1.7297    2.4117   -0.7912 H   0  0  0
   -2.1035    1.6356    0.7671 H   0  0  0
   -2.4055    5.1247    0.1065 H   0  0  0
   -3.3096    3.7406    0.7966 H   0  0  0
   -1.8220    5.9733    2.2867 H   0  0  0
   -3.4841    5.3611    2.5697 H   0  0  0
   -1.4787    4.4622    4.1345 H   0  0  0
   -2.6828    3.2939    3.5098 H   0  0  0
   -0.7908    2.2431    2.6216 H   0  0  0
    0.1720    3.7468    2.6446 H   0  0  0
   -0.3242    4.5992   -0.7587 H   0  0  0
    0.2047    5.2290    0.8205 H   0  0  0
    2.1460    0.4020   -0.4759 H   0  0  0
    3.1077    1.8997   -0.4620 H   0  0  0
    3.0285    1.9275    2.0162 H   0  0  0
    2.0668    0.4298    2.0023 H   0  0  0
    3.9206   -0.7499    0.8532 H   0  0  0
    4.8823    0.7478    0.8671 H   0  0  0
    5.6993    1.6430    2.7350 H   0  0  0
    4.0880    1.7668    3.4794 H   0  0  0
    5.8208    1.8264    5.2225 H   0  0  0
    4.8755    0.3253    5.3603 H   0  0  0
    7.3141   -1.8166    3.8626 H   0  0  0
    5.7027   -1.6928    4.6070 H   0  0  0
    5.5813   -1.8762    2.1195 H   0  0  0
    6.5266   -0.3751    1.9817 H   0  0  0
    8.2636    3.8251    2.7179 H   0  0  0
    9.7495    2.5661    1.1752 H   0  0  0
    9.7896    0.0864    1.3164 H   0  0  0
  1  2  2  0
  2 12  1  0
  2  3  1  0
  3  4  1  0
  3 28  1  0
  3 29  1  0
  4  8  1  0
  4  5  1  0
  4  9  1  0
  5  6  1  0
  5 30  1  0
  5 31  1  0
  6  7  1  0
  6 32  1  0
  6 33  1  0
  7  8  1  0
  7 34  1  0
  7 35  1  0
  8 36  1  0
  8 37  1  0
  9 10  1  0
  9 38  1  0
  9 39  1  0
 10 11  2  0
 10 12  1  0
 12 13  1  0
 13 14  1  0
 13 40  1  0
 13 41  1  0
 14 15  1  0
 14 42  1  0
 14 43  1  0
 15 16  1  0
 15 44  1  0
 15 45  1  0
 16 21  1  0
 16 17  1  0
 17 18  1  0
 17 46  1  0
 17 47  1  0
 18 19  1  0
 18 48  1  0
 18 49  1  0
 19 20  1  0
 19 22  1  0
 20 21  1  0
 20 50  1  0
 20 51  1  0
 21 52  1  0
 21 53  1  0
 22 27  4  0
 22 23  4  0
 23 24  4  0
 24 25  4  0
 24 54  1  0
 25 26  4  0
 25 55  1  0
 26 27  4  0
 26 56  1  0
M  END
$$$$
