CN(C)CCC(c1ccc(Cl)cc1)c2ccccn2
CHcorina  02210111253D 1   1.00000     0.00000     0
CORINA evaluation copy  2.4  150  11.12.1900 (2001-3)
 38 39  0  0  0  0              1 V2000
   -0.0178    1.4648    0.0101 C   0  0  0
    0.0021   -0.0041    0.0020 N   0  0  0
    0.5874   -0.4253    1.2818 C   0  0  0
   -1.3990   -0.4453    0.0130 C   0  0  0
   -1.4523   -1.9744    0.0053 C   0  0  0
   -2.9116   -2.4339    0.0168 C   0  0  0
   -2.9640   -3.9400    0.0092 C   0  0  0
   -2.3847   -4.6568    1.0398 C   0  0  0
   -2.4321   -6.0379    1.0332 C   0  0  0
   -3.0598   -6.7034   -0.0049 C   0  0  0
   -3.1202   -8.4383   -0.0137 Cl  0  0  0
   -3.6397   -5.9857   -1.0356 C   0  0  0
   -3.5962   -4.6040   -1.0252 C   0  0  0
   -3.5923   -1.9138    1.2566 C   0  0  0
   -4.6918   -1.0849    1.1356 C   0  0  0
   -5.3107   -0.6119    2.2823 C   0  0  0
   -4.7983   -0.9921    3.5135 C   0  0  0
   -3.6956   -1.8238    3.5562 C   0  0  0
   -3.1355   -2.2591    2.4443 N   0  0  0
    1.0047    1.8421    0.0024 H   0  0  0
   -0.5450    1.8259   -0.8730 H   0  0  0
   -0.5280    1.8163    0.9069 H   0  0  0
    0.6239   -1.5139    1.3239 H   0  0  0
    1.5972   -0.0243    1.3690 H   0  0  0
   -0.0246   -0.0504    2.1022 H   0  0  0
   -1.8914   -0.0691    0.9098 H   0  0  0
   -1.9084   -0.0596   -0.8701 H   0  0  0
   -0.9599   -2.3505   -0.8914 H   0  0  0
   -0.9429   -2.3601    0.8884 H   0  0  0
   -3.4209   -2.0482   -0.8663 H   0  0  0
   -1.8948   -4.1373    1.8501 H   0  0  0
   -1.9789   -6.5977    1.8380 H   0  0  0
   -4.1298   -6.5045   -1.8461 H   0  0  0
   -4.0488   -4.0435   -1.8298 H   0  0  0
   -5.0638   -0.8089    0.1599 H   0  0  0
   -6.1713    0.0374    2.2183 H   0  0  0
   -5.2550   -0.6423    4.4275 H   0  0  0
   -3.2905   -2.1245    4.5111 H   0  0  0
  1  2  1  0
  1 20  1  0
  1 21  1  0
  1 22  1  0
  2  3  1  0
  2  4  1  0
  3 23  1  0
  3 24  1  0
  3 25  1  0
  4  5  1  0
  4 26  1  0
  4 27  1  0
  5  6  1  0
  5 28  1  0
  5 29  1  0
  6  7  1  0
  6 14  1  0
  6 30  1  0
  7 13  4  0
  7  8  4  0
  8  9  4  0
  8 31  1  0
  9 10  4  0
  9 32  1  0
 10 11  1  0
 10 12  4  0
 12 13  4  0
 12 33  1  0
 13 34  1  0
 14 19  4  0
 14 15  4  0
 15 16  4  0
 15 35  1  0
 16 17  4  0
 16 36  1  0
 17 18  4  0
 17 37  1  0
 18 19  4  0
 18 38  1  0
M  END
$$$$
