ON(=O)c1ccc(Cc2ccc(C=NN3CC(=O)NC3=O)o2)cc1
CHcorina  02210111263D 1   1.00000     0.00000     0
CORINA evaluation copy  2.4  150  11.12.1900 (2001-3)
 37 39  0  0  0  0              2 V2000
   -0.0144    1.2138    0.0087 O   0  0  0
    0.0021   -0.0041    0.0020 N   0  4  0
    1.0650   -0.5986   -0.0113 O   0  0  0
   -1.1532   -0.6922    0.0094 C   0  0  0
   -2.3828   -0.0110    0.0189 C   0  0  0
   -3.5596   -0.7253    0.0264 C   0  0  0
   -3.5350   -2.1109    0.0250 C   0  0  0
   -4.8297   -2.8821    0.0333 C   0  0  0
   -5.2711   -3.1379   -1.3847 C   0  0  0
   -4.9446   -4.2156   -2.1268 C   0  0  0
   -5.5628   -4.0571   -3.3809 C   0  0  0
   -6.2429   -2.8749   -3.3365 C   0  0  0
   -7.0390   -2.2977   -4.4243 C   0  0  0
   -7.6417   -1.1578   -4.2549 N   0  0  0
   -8.4023   -0.6063   -5.2942 N   0  0  0
   -9.1372    0.6700   -5.2655 C   0  0  0
   -9.7641    0.7512   -6.6433 C   0  0  0
  -10.4657    1.6395   -7.0774 O   0  0  0
   -9.3785   -0.3691   -7.2855 N   0  0  0
   -8.5992   -1.1364   -6.5148 C   0  0  0
   -8.1281   -2.1977   -6.8747 O   0  0  0
   -6.0591   -2.3330   -2.1159 O   0  0  0
   -2.3288   -2.7923    0.0156 C   0  0  0
   -1.1399   -2.0975    0.0017 C   0  0  0
    0.8163    1.7086    0.0034 H   0  0  0
   -2.4042    1.0688    0.0208 H   0  0  0
   -4.5054   -0.2040    0.0338 H   0  0  0
   -4.6829   -3.8331    0.5453 H   0  0  0
   -5.5937   -2.3038    0.5529 H   0  0  0
   -4.3248   -5.0441   -1.8170 H   0  0  0
   -5.5090   -4.7388   -4.2168 H   0  0  0
   -7.1248   -2.8192   -5.3661 H   0  0  0
   -9.9073    0.6520   -4.4943 H   0  0  0
   -8.4527    1.5032   -5.1060 H   0  0  0
   -9.6322   -0.5904   -8.1953 H   0  0  0
   -2.3209   -3.8723    0.0146 H   0  0  0
   -0.2007   -2.6306   -0.0056 H   0  0  0
  1  2  1  0
  1 25  1  0
  2  3  2  0
  2  4  1  0
  4 24  4  0
  4  5  4  0
  5  6  4  0
  5 26  1  0
  6  7  4  0
  6 27  1  0
  7  8  1  0
  7 23  4  0
  8  9  1  0
  8 28  1  0
  8 29  1  0
  9 22  4  0
  9 10  4  0
 10 11  4  0
 10 30  1  0
 11 12  4  0
 11 31  1  0
 12 13  1  0
 12 22  4  0
 13 14  2  0
 13 32  1  0
 14 15  1  0
 15 20  1  0
 15 16  1  0
 16 17  1  0
 16 33  1  0
 16 34  1  0
 17 18  2  0
 17 19  1  0
 19 20  1  0
 19 35  1  0
 20 21  2  0
 23 24  4  0
 23 36  1  0
 24 37  1  0
M  RAD  1   2   1
M  END
$$$$
