CCOC(=O)C(CCc1ccccc1)NC(C)C(=O)N2CCCC2C(=O)O
CHcorina  02210111263D 1   1.00000     0.00000     0
CORINA evaluation copy  2.4  150  11.12.1900 (2001-3)
 55 56  0  0  0  0              1 V2000
   -0.0187    1.5258    0.0104 C   0  0  0
    0.0021   -0.0041    0.0020 C   0  0  0
   -1.3601   -0.5067    0.0123 O   0  0  0
   -1.5875   -1.8295    0.0074 C   0  0  0
   -0.6586   -2.6021   -0.0056 O   0  0  0
   -3.0013   -2.3512    0.0181 C   0  0  0
   -3.7413   -1.8443   -1.2214 C   0  0  0
   -5.1767   -2.3739   -1.2106 C   0  0  0
   -5.9055   -1.8747   -2.4315 C   0  0  0
   -6.5883   -0.6734   -2.3859 C   0  0  0
   -7.2568   -0.2155   -3.5056 C   0  0  0
   -7.2423   -0.9586   -4.6714 C   0  0  0
   -6.5590   -2.1592   -4.7172 C   0  0  0
   -5.8867   -2.6151   -3.5984 C   0  0  0
   -2.9814   -3.8200    0.0100 N   0  0  0
   -2.9622   -4.2496    1.4146 C   0  0  0
   -4.3979   -4.4184    1.9160 C   0  0  0
   -2.2327   -5.5634    1.5282 C   0  0  0
   -1.7740   -6.0900    0.5366 O   0  0  0
   -2.0902   -6.1532    2.7316 N   0  0  0
   -2.6012   -5.6291    4.0113 C   0  0  0
   -1.6963   -6.2710    5.0924 C   0  0  0
   -1.4665   -7.6885    4.5049 C   0  0  0
   -1.4047   -7.4290    2.9848 C   0  0  0
   -2.0960   -8.5457    2.2457 C   0  0  0
   -3.0628   -8.3091    1.5607 O   0  0  0
   -1.6377   -9.8031    2.3483 O   0  0  0
    1.0039    1.9031    0.0027 H   0  0  0
   -0.5459    1.8868   -0.8726 H   0  0  0
   -0.5289    1.8773    0.9072 H   0  0  0
    0.5123   -0.3556   -0.8948 H   0  0  0
    0.5293   -0.3651    0.8851 H   0  0  0
   -3.5115   -1.9996    0.9149 H   0  0  0
   -3.7561   -0.7544   -1.2154 H   0  0  0
   -3.2311   -2.1958   -2.1182 H   0  0  0
   -5.1619   -3.4638   -1.2166 H   0  0  0
   -5.6869   -2.0224   -0.3138 H   0  0  0
   -6.5996   -0.0929   -1.4753 H   0  0  0
   -7.7907    0.7226   -3.4698 H   0  0  0
   -7.7652   -0.6012   -5.5462 H   0  0  0
   -6.5480   -2.7398   -5.6278 H   0  0  0
   -5.3528   -3.5532   -3.6342 H   0  0  0
   -3.8654   -4.1199   -0.3729 H   0  0  0
   -2.4528   -3.4979    2.0176 H   0  0  0
   -4.9072   -5.1702    1.3130 H   0  0  0
   -4.3836   -4.7372    2.9582 H   0  0  0
   -4.9255   -3.4682    1.8338 H   0  0  0
   -2.5130   -4.5430    4.0387 H   0  0  0
   -3.6386   -5.9302    4.1573 H   0  0  0
   -0.7549   -5.7295    5.1858 H   0  0  0
   -2.2113   -6.3244    6.0516 H   0  0  0
   -0.5272   -8.1078    4.8654 H   0  0  0
   -2.3016   -8.3461    4.7465 H   0  0  0
   -0.3658   -7.3562    2.6631 H   0  0  0
   -2.0812  -10.5196    1.8741 H   0  0  0
  1  2  1  0
  1 28  1  0
  1 29  1  0
  1 30  1  0
  2  3  1  0
  2 31  1  0
  2 32  1  0
  3  4  1  0
  4  5  2  0
  4  6  1  0
  6  7  1  0
  6 15  1  0
  6 33  1  0
  7  8  1  0
  7 34  1  0
  7 35  1  0
  8  9  1  0
  8 36  1  0
  8 37  1  0
  9 14  4  0
  9 10  4  0
 10 11  4  0
 10 38  1  0
 11 12  4  0
 11 39  1  0
 12 13  4  0
 12 40  1  0
 13 14  4  0
 13 41  1  0
 14 42  1  0
 15 16  1  0
 15 43  1  0
 16 17  1  0
 16 18  1  0
 16 44  1  0
 17 45  1  0
 17 46  1  0
 17 47  1  0
 18 19  2  0
 18 20  1  0
 20 24  1  0
 20 21  1  0
 21 22  1  0
 21 48  1  0
 21 49  1  0
 22 23  1  0
 22 50  1  0
 22 51  1  0
 23 24  1  0
 23 52  1  0
 23 53  1  0
 24 25  1  0
 24 54  1  0
 25 26  2  0
 25 27  1  0
 27 55  1  0
M  END
$$$$
CCOC(=O)C(CCc1ccccc1)NC(C)C(=O)N2CCCC2C(=O)O
CHcorina  02210111263D 1   1.00000     1.00000     0
CORINA evaluation copy  2.4  150  11.12.1900 (2001-3)
 55 56  0  0  0  0              1 V2000
   -1.0931    1.8931    0.7780 C   0  0  0
   -0.8337    0.3926    0.6293 C   0  0  0
   -2.1001   -0.3088    0.5167 O   0  0  0
   -2.1179   -1.6436    0.3767 C   0  0  0
   -1.0801   -2.2616    0.3444 O   0  0  0
   -3.4323   -2.3715    0.2599 C   0  0  0
   -4.1907   -1.8611   -0.9669 C   0  0  0
   -5.5251   -2.6001   -1.0855 C   0  0  0
   -6.2721   -2.0973   -2.2939 C   0  0  0
   -7.1352   -1.0237   -2.1758 C   0  0  0
   -7.8203   -0.5626   -3.2841 C   0  0  0
   -7.6422   -1.1746   -4.5109 C   0  0  0
   -6.7787   -2.2473   -4.6292 C   0  0  0
   -6.0901   -2.7058   -3.5215 C   0  0  0
   -3.1831   -3.8122    0.1172 N   0  0  0
   -3.1550   -4.3723    1.4749 C   0  0  0
   -4.5661   -4.8056    1.8772 C   0  0  0
   -2.2348   -5.5653    1.5072 C   0  0  0
   -2.0253   -6.1972    0.4934 O   0  0  0
   -1.6446   -5.9301    2.6626 N   0  0  0
   -1.7257   -5.1954    3.9382 C   0  0  0
   -1.4563   -6.2626    5.0283 C   0  0  0
   -0.3811   -7.1452    4.3411 C   0  0  0
   -0.8185   -7.1299    2.8613 C   0  0  0
   -1.6179   -8.3689    2.5498 C   0  0  0
   -2.7657   -8.2714    2.1853 O   0  0  0
   -1.0547   -9.5806    2.6772 O   0  0  0
   -0.1425    2.4196    0.8625 H   0  0  0
   -1.6334    2.2567   -0.0961 H   0  0  0
   -1.6884    2.0719    1.6734 H   0  0  0
   -0.2385    0.2138   -0.2662 H   0  0  0
   -0.2934    0.0289    1.5033 H   0  0  0
   -4.0275   -2.1927    1.1554 H   0  0  0
   -4.3755   -0.7921   -0.8610 H   0  0  0
   -3.5954   -2.0399   -1.8624 H   0  0  0
   -5.3402   -3.6691   -1.1915 H   0  0  0
   -6.1203   -2.4213   -0.1901 H   0  0  0
   -7.2743   -0.5456   -1.2174 H   0  0  0
   -8.4950    0.2756   -3.1916 H   0  0  0
   -8.1780   -0.8148   -5.3768 H   0  0  0
   -6.6398   -2.7256   -5.5875 H   0  0  0
   -5.4153   -3.5440   -3.6139 H   0  0  0
   -3.9931   -4.2025   -0.3408 H   0  0  0
   -2.7943   -3.6163    2.1724 H   0  0  0
   -4.9553   -5.5067    1.1389 H   0  0  0
   -4.5334   -5.2878    2.8542 H   0  0  0
   -5.2149   -3.9310    1.9252 H   0  0  0
   -0.9661   -4.4145    3.9755 H   0  0  0
   -2.7188   -4.7647    4.0657 H   0  0  0
   -1.0636   -5.8038    5.9357 H   0  0  0
   -2.3565   -6.8387    5.2421 H   0  0  0
    0.6104   -6.7080    4.4590 H   0  0  0
   -0.4039   -8.1603    4.7376 H   0  0  0
    0.0584   -7.0817    2.2157 H   0  0  0
   -1.5677  -10.3756    2.4773 H   0  0  0
  1  2  1  0
  1 28  1  0
  1 29  1  0
  1 30  1  0
  2  3  1  0
  2 31  1  0
  2 32  1  0
  3  4  1  0
  4  5  2  0
  4  6  1  0
  6  7  1  0
  6 15  1  0
  6 33  1  0
  7  8  1  0
  7 34  1  0
  7 35  1  0
  8  9  1  0
  8 36  1  0
  8 37  1  0
  9 14  4  0
  9 10  4  0
 10 11  4  0
 10 38  1  0
 11 12  4  0
 11 39  1  0
 12 13  4  0
 12 40  1  0
 13 14  4  0
 13 41  1  0
 14 42  1  0
 15 16  1  0
 15 43  1  0
 16 17  1  0
 16 18  1  0
 16 44  1  0
 17 45  1  0
 17 46  1  0
 17 47  1  0
 18 19  2  0
 18 20  1  0
 20 24  1  0
 20 21  1  0
 21 22  1  0
 21 48  1  0
 21 49  1  0
 22 23  1  0
 22 50  1  0
 22 51  1  0
 23 24  1  0
 23 52  1  0
 23 53  1  0
 24 25  1  0
 24 54  1  0
 25 26  2  0
 25 27  1  0
 27 55  1  0
M  END
$$$$
CCOC(=O)C(CCc1ccccc1)NC(C)C(=O)N2CCCC2C(=O)O
CHcorina  02210111263D 1   1.00000     1.00000     0
CORINA evaluation copy  2.4  150  11.12.1900 (2001-3)
 55 56  0  0  0  0              1 V2000
    4.1680   -0.3520    2.9117 C   0  0  0
    3.5638   -1.7338    2.6541 C   0  0  0
    2.4975   -1.6210    1.6751 O   0  0  0
    1.8195   -2.7144    1.2922 C   0  0  0
    2.0966   -3.7925    1.7621 O   0  0  0
    0.7128   -2.5973    0.2761 C   0  0  0
    1.2773   -2.0360   -1.0305 C   0  0  0
    0.1537   -1.9171   -2.0621 C   0  0  0
    0.7097   -1.3642   -3.3490 C   0  0  0
    0.7400    0.0021   -3.5584 C   0  0  0
    1.2500    0.5092   -4.7387 C   0  0  0
    1.7302   -0.3498   -5.7098 C   0  0  0
    1.7007   -1.7156   -5.5001 C   0  0  0
    1.1945   -2.2227   -4.3177 C   0  0  0
    0.1327   -3.9241    0.0288 N   0  0  0
   -0.9623   -4.0925    0.9934 C   0  0  0
   -2.2647   -3.5714    0.3825 C   0  0  0
   -1.1147   -5.5534    1.3304 C   0  0  0
   -0.7523   -6.3990    0.5402 O   0  0  0
   -1.6538   -5.9202    2.5099 N   0  0  0
   -2.0359   -5.0082    3.5980 C   0  0  0
   -2.6314   -5.8706    4.7308 C   0  0  0
   -3.0722   -7.1608    3.9903 C   0  0  0
   -1.9639   -7.3018    2.9203 C   0  0  0
   -2.4668   -8.1023    1.7466 C   0  0  0
   -3.0080   -7.5438    0.8219 O   0  0  0
   -2.3133   -9.4356    1.7285 O   0  0  0
    4.9685   -0.4367    3.6466 H   0  0  0
    4.5702    0.0479    1.9808 H   0  0  0
    3.3958    0.3172    3.2910 H   0  0  0
    4.3361   -2.4031    2.2748 H   0  0  0
    3.1617   -2.1338    3.5850 H   0  0  0
   -0.0594   -1.9281    0.6554 H   0  0  0
    1.7077   -1.0515   -0.8470 H   0  0  0
    2.0495   -2.7052   -1.4099 H   0  0  0
   -0.2768   -2.9016   -2.2456 H   0  0  0
   -0.6186   -1.2479   -1.6828 H   0  0  0
    0.3649    0.6731   -2.7998 H   0  0  0
    1.2730    1.5764   -4.9025 H   0  0  0
    2.1280    0.0464   -6.6324 H   0  0  0
    2.0755   -2.3866   -6.2588 H   0  0  0
    1.1715   -3.2899   -4.1538 H   0  0  0
   -0.2901   -3.8896   -0.8867 H   0  0  0
   -0.7368   -3.5319    1.9006 H   0  0  0
   -2.4078   -4.0165   -0.6021 H   0  0  0
   -3.1014   -3.8397    1.0276 H   0  0  0
   -2.2129   -2.4869    0.2870 H   0  0  0
   -1.1576   -4.4739    3.9604 H   0  0  0
   -2.7809   -4.2967    3.2420 H   0  0  0
   -1.8754   -6.0960    5.4830 H   0  0  0
   -3.4887   -5.3736    5.1848 H   0  0  0
   -3.0768   -8.0165    4.6655 H   0  0  0
   -4.0477   -7.0288    3.5224 H   0  0  0
   -1.0794   -7.7720    3.3499 H   0  0  0
   -2.6359   -9.9493    0.9754 H   0  0  0
  1  2  1  0
  1 28  1  0
  1 29  1  0
  1 30  1  0
  2  3  1  0
  2 31  1  0
  2 32  1  0
  3  4  1  0
  4  5  2  0
  4  6  1  0
  6  7  1  0
  6 15  1  0
  6 33  1  0
  7  8  1  0
  7 34  1  0
  7 35  1  0
  8  9  1  0
  8 36  1  0
  8 37  1  0
  9 14  4  0
  9 10  4  0
 10 11  4  0
 10 38  1  0
 11 12  4  0
 11 39  1  0
 12 13  4  0
 12 40  1  0
 13 14  4  0
 13 41  1  0
 14 42  1  0
 15 16  1  0
 15 43  1  0
 16 17  1  0
 16 18  1  0
 16 44  1  0
 17 45  1  0
 17 46  1  0
 17 47  1  0
 18 19  2  0
 18 20  1  0
 20 24  1  0
 20 21  1  0
 21 22  1  0
 21 48  1  0
 21 49  1  0
 22 23  1  0
 22 50  1  0
 22 51  1  0
 23 24  1  0
 23 52  1  0
 23 53  1  0
 24 25  1  0
 24 54  1  0
 25 26  2  0
 25 27  1  0
 27 55  1  0
M  END
$$$$
