CCC1OC(=O)C(C)C(OC2CC(C)(OC)C(O)C(C)O2)C(C)C(OC3OC(C)CC(C3O)N(C)C)C(C)(O)CC(C)C
CHcorina  02210111263D 1   1.00000     0.00000     0
CORINA evaluation copy  2.4  150  11.12.1900 (2001-3)
118	120  0  0  0  0              1 V2000
   -0.8203    4.4033   -0.7874 C   0  0  0
   -0.8395    3.0022   -0.1730 C   0  0  0
   -2.2842    2.5265   -0.0354 C   0  0  0
   -2.9106    2.3680   -1.3287 O   0  0  0
   -3.3170    3.4260   -2.0404 C   0  0  0
   -2.9496    4.5408   -1.7426 O   0  0  0
   -4.2749    3.2614   -3.1941 C   0  0  0
   -4.3393    4.5830   -3.9711 C   0  0  0
   -3.8126    2.1502   -4.1346 C   0  0  0
   -2.5142    1.7044   -3.7411 O   0  0  0
   -1.5808    2.6714   -4.2264 C   0  0  0
   -0.1703    2.2902   -3.7711 C   0  0  0
    0.8185    3.3511   -4.2675 C   0  0  0
    0.5347    4.6834   -3.5709 C   0  0  0
    2.1544    2.9340   -3.9786 O   0  0  0
    2.2123    2.6775   -2.5740 C   0  0  0
    0.6432    3.5147   -5.7816 C   0  0  0
    1.0402    2.3111   -6.4417 O   0  0  0
   -0.8288    3.8033   -6.0847 C   0  0  0
   -1.0085    4.0018   -7.5911 C   0  0  0
   -1.6349    2.7093   -5.6512 O   0  0  0
   -4.8018    0.9856   -4.1149 C   0  0  0
   -6.1690    1.4770   -4.6207 C   0  0  0
   -4.3351   -0.1394   -5.0325 C   0  0  0
   -3.1397    0.2237   -5.7204 O   0  0  0
   -3.1741   -0.4387   -6.9861 C   0  0  0
   -4.3866   -0.1091   -7.6610 O   0  0  0
   -4.4660   -0.9243   -8.8287 C   0  0  0
   -5.8376   -0.7446   -9.4822 C   0  0  0
   -3.3730   -0.5180   -9.8198 C   0  0  0
   -2.0025   -0.7338   -9.1680 C   0  0  0
   -1.9753    0.0074   -7.8265 C   0  0  0
   -2.0504    1.4157   -8.0567 O   0  0  0
   -1.7841   -2.1689   -8.9428 N   0  0  0
   -1.7122   -2.7980  -10.2684 C   0  0  0
   -0.4519   -2.3035   -8.3388 C   0  0  0
   -4.1132   -1.4466   -4.2634 C   0  0  0
   -5.4496   -1.9408   -3.7116 C   0  0  0
   -3.6132   -2.4117   -5.2026 O   0  0  0
   -3.0979   -1.2297   -3.1507 C   0  0  0
   -2.9979   -2.3981   -2.1782 C   0  0  0
   -2.5207   -3.6669   -2.8887 C   0  0  0
   -1.9814   -2.0572   -1.1090 C   0  0  0
   -0.8494   -2.4615   -1.2098 O   0  0  0
   -2.3826   -1.2185    0.0806 C   0  0  0
   -2.0398   -1.9861    1.3612 C   0  0  0
   -1.5982    0.0945    0.0423 C   0  0  0
   -1.3373    0.4252   -1.3240 O   0  0  0
   -2.3422    1.2153    0.7525 C   0  0  0
   -1.6966    1.4567    2.1276 C   0  0  0
   -3.7146    0.8641    0.9529 O   0  0  0
    0.1602    4.8540   -0.6336 H   0  0  0
   -1.0249    4.3344   -1.8558 H   0  0  0
   -1.5823    5.0196   -0.3104 H   0  0  0
   -0.2907    2.3153   -0.8174 H   0  0  0
   -0.3710    3.0303    0.8107 H   0  0  0
   -2.8450    3.2868    0.5289 H   0  0  0
   -5.2625    3.0401   -2.7905 H   0  0  0
   -4.6881    5.3765   -3.3101 H   0  0  0
   -3.3468    4.8326   -4.3462 H   0  0  0
   -5.0288    4.4787   -4.8088 H   0  0  0
   -3.7543    2.5501   -5.1533 H   0  0  0
   -1.8361    3.6533   -3.8278 H   0  0  0
   -0.1387    2.2431   -2.6826 H   0  0  0
    0.0973    1.3190   -4.1875 H   0  0  0
    0.7057    4.5770   -2.4997 H   0  0  0
    1.1978    5.4508   -3.9703 H   0  0  0
   -0.5018    4.9716   -3.7465 H   0  0  0
    3.2359    2.4315   -2.2915 H   0  0  0
    1.8882    3.5642   -2.0291 H   0  0  0
    1.5571    1.8414   -2.3300 H   0  0  0
    1.2585    4.3431   -6.1326 H   0  0  0
    0.9142    2.4573   -7.3892 H   0  0  0
   -1.1360    4.7084   -5.5608 H   0  0  0
   -2.0452    4.2642   -7.8019 H   0  0  0
   -0.3540    4.8038   -7.9325 H   0  0  0
   -0.7542    3.0788   -8.1121 H   0  0  0
   -4.9137    0.6270   -3.0944 H   0  0  0
   -6.5303    2.2757   -3.9730 H   0  0  0
   -6.0660    1.8532   -5.6385 H   0  0  0
   -6.8793    0.6503   -4.6090 H   0  0  0
   -5.1181   -0.3207   -5.7840 H   0  0  0
   -3.1277   -1.5168   -6.8323 H   0  0  0
   -4.3313   -1.9696   -8.5507 H   0  0  0
   -6.6166   -1.0394   -8.7791 H   0  0  0
   -5.9743    0.3009   -9.7585 H   0  0  0
   -5.8992   -1.3673  -10.3748 H   0  0  0
   -3.4498   -1.1300  -10.7185 H   0  0  0
   -3.4908    0.5334  -10.0818 H   0  0  0
   -1.2218   -0.3403   -9.8191 H   0  0  0
   -1.0516   -0.2285   -7.2981 H   0  0  0
   -2.1509    1.8354   -7.1913 H   0  0  0
   -1.5962   -3.8757  -10.1532 H   0  0  0
   -2.6283   -2.5881  -10.8204 H   0  0  0
   -0.8586   -2.3971  -10.8150 H   0  0  0
   -0.2425   -3.3568   -8.1517 H   0  0  0
    0.2979   -1.8993   -9.0188 H   0  0  0
   -0.4225   -1.7545   -7.3976 H   0  0  0
   -5.2951   -2.8705   -3.1640 H   0  0  0
   -5.8662   -1.1891   -3.0412 H   0  0  0
   -6.1409   -2.1154   -4.5361 H   0  0  0
   -4.3238   -2.5785   -5.8369 H   0  0  0
   -2.1107   -1.0492   -3.5928 H   0  0  0
   -3.3736   -0.3300   -2.5871 H   0  0  0
   -3.9529   -2.5826   -1.6918 H   0  0  0
   -2.3597   -4.4559   -2.1541 H   0  0  0
   -3.2759   -3.9873   -3.6064 H   0  0  0
   -1.5867   -3.4612   -3.4115 H   0  0  0
   -3.4507   -1.0354    0.0353 H   0  0  0
   -2.5828   -2.9311    1.3747 H   0  0  0
   -0.9681   -2.1823    1.3913 H   0  0  0
   -2.3247   -1.3909    2.2288 H   0  0  0
   -0.6340   -0.0664    0.5445 H   0  0  0
   -0.8203   -0.3033   -1.6941 H   0  0  0
   -2.2258    2.2592    2.6415 H   0  0  0
   -1.7548    0.5446    2.7215 H   0  0  0
   -0.6519    1.7375    1.9943 H   0  0  0
   -4.1310    1.6106    1.4050 H   0  0  0
  1  2  1  0
  1 52  1  0
  1 53  1  0
  1 54  1  0
  2  3  1  0
  2 55  1  0
  2 56  1  0
  3 49  1  0
  3  4  1  0
  3 57  1  0
  4  5  1  0
  5  6  2  0
  5  7  1  0
  7  8  1  0
  7  9  1  0
  7 58  1  0
  8 59  1  0
  8 60  1  0
  8 61  1  0
  9 10  1  0
  9 22  1  0
  9 62  1  0
 10 11  1  0
 11 21  1  0
 11 12  1  0
 11 63  1  0
 12 13  1  0
 12 64  1  0
 12 65  1  0
 13 14  1  0
 13 15  1  0
 13 17  1  0
 14 66  1  0
 14 67  1  0
 14 68  1  0
 15 16  1  0
 16 69  1  0
 16 70  1  0
 16 71  1  0
 17 18  1  0
 17 19  1  0
 17 72  1  0
 18 73  1  0
 19 20  1  0
 19 21  1  0
 19 74  1  0
 20 75  1  0
 20 76  1  0
 20 77  1  0
 22 23  1  0
 22 24  1  0
 22 78  1  0
 23 79  1  0
 23 80  1  0
 23 81  1  0
 24 25  1  0
 24 37  1  0
 24 82  1  0
 25 26  1  0
 26 32  1  0
 26 27  1  0
 26 83  1  0
 27 28  1  0
 28 29  1  0
 28 30  1  0
 28 84  1  0
 29 85  1  0
 29 86  1  0
 29 87  1  0
 30 31  1  0
 30 88  1  0
 30 89  1  0
 31 32  1  0
 31 34  1  0
 31 90  1  0
 32 33  1  0
 32 91  1  0
 33 92  1  0
 34 35  1  0
 34 36  1  0
 35 93  1  0
 35 94  1  0
 35 95  1  0
 36 96  1  0
 36 97  1  0
 36 98  1  0
 37 38  1  0
 37 39  1  0
 37 40  1  0
 38 99  1  0
 38 100  1  0
 38 101  1  0
 39 102  1  0
 40 41  1  0
 40 103  1  0
 40 104  1  0
 41 42  1  0
 41 43  1  0
 41 105  1  0
 42 106  1  0
 42 107  1  0
 42 108  1  0
 43 44  2  0
 43 45  1  0
 45 46  1  0
 45 47  1  0
 45 109  1  0
 46 110  1  0
 46 111  1  0
 46 112  1  0
 47 48  1  0
 47 49  1  0
 47 113  1  0
 48 114  1  0
 49 50  1  0
 49 51  1  0
 50 115  1  0
 50 116  1  0
 50 117  1  0
 51 118  1  0
M  END
$$$$
