Oc1ncnc2[nH]ncc12
CHcorina  02210111253D 1   1.00000     0.00000     0
CORINA evaluation copy  2.4  150  11.12.1900 (2001-3)
 14 15  0  0  0  0              1 V2000
   -0.0163    1.3495    0.0095 O   0  0  0
    0.0021   -0.0041    0.0020 C   0  0  0
    0.0059   -0.6770   -1.1413 N   0  0  0
    0.0238   -1.9983   -1.1585 C   0  0  0
    0.0386   -2.7215   -0.0603 N   0  0  0
    0.0363   -2.1379    1.1363 C   0  0  0
    0.0476   -2.5898    2.4224 N   0  0  0
    0.0616   -3.5197    2.6980 H   0  0  0
    0.0361   -1.4806    3.2775 N   0  0  0
    0.0183   -0.3842    2.5749 C   0  0  0
    0.0234   -0.7302    1.2056 C   0  0  0
    0.9055    1.6415    0.0022 H   0  0  0
    0.0258   -2.5044   -2.1126 H   0  0  0
    0.0064    0.6200    2.9722 H   0  0  0
  1  2  1  0
  1 12  1  0
  2 11  4  0
  2  3  4  0
  3  4  4  0
  4  5  4  0
  4 13  1  0
  5  6  4  0
  6 11  4  0
  6  7  4  0
  7  8  1  0
  7  9  4  0
  9 10  4  0
 10 11  4  0
 10 14  1  0
M  END
$$$$
