CC(=O)OCC(CCn1cnc2CNC(=Nc21)N)COC(=O)C
CHcorina  02210111253D 1   1.00000     0.00000     0
CORINA evaluation copy  2.4  150  11.12.1900 (2001-3)
 44 45  0  0  0  0              1 V2000
   -0.0184    1.5028    0.0103 C   0  0  0
    0.0021   -0.0041    0.0020 C   0  0  0
    1.0565   -0.5939   -0.0112 O   0  0  0
   -1.1511   -0.6910    0.0093 O   0  0  0
   -1.1314   -2.1428    0.0014 C   0  0  0
   -2.5668   -2.6724    0.0122 C   0  0  0
   -2.5461   -4.2022    0.0038 C   0  0  0
   -3.9814   -4.7318    0.0147 C   0  0  0
   -3.9616   -6.1967    0.0066 N   0  0  0
   -3.9461   -7.0172    1.0999 C   0  0  0
   -3.9316   -8.2629    0.6964 N   0  0  0
   -3.9371   -8.2955   -0.6292 C   0  0  0
   -3.9262   -9.4638   -1.5868 C   0  0  0
   -4.4826   -8.9638   -2.8578 N   0  0  0
   -4.2052   -7.6859   -3.2778 C   0  0  0
   -3.9647   -6.7105   -2.4241 N   0  0  0
   -3.9610   -7.0022   -1.0912 C   0  0  0
   -4.1771   -7.4168   -4.6244 N   0  0  0
   -3.2830   -2.1790    1.2710 C   0  0  0
   -2.5807   -2.6600    2.4474 O   0  0  0
   -3.0320   -2.3485    3.6725 C   0  0  0
   -4.0226   -1.6679    3.7965 O   0  0  0
   -2.3031   -2.8477    4.8934 C   0  0  0
    1.0042    1.8801    0.0026 H   0  0  0
   -0.5455    1.8639   -0.8728 H   0  0  0
   -0.5286    1.8543    0.9071 H   0  0  0
   -0.6212   -2.4943   -0.8954 H   0  0  0
   -0.6042   -2.5039    0.8844 H   0  0  0
   -3.0940   -2.3113   -0.8708 H   0  0  0
   -2.0359   -4.5537   -0.8930 H   0  0  0
   -2.0189   -4.5633    0.8869 H   0  0  0
   -4.4916   -4.3803    0.9115 H   0  0  0
   -4.5086   -4.3707   -0.8684 H   0  0  0
   -3.9455   -6.6910    2.1294 H   0  0  0
   -2.9053   -9.8145   -1.7375 H   0  0  0
   -4.5470  -10.2714   -1.1987 H   0  0  0
   -5.0458   -9.5391   -3.3989 H   0  0  0
   -3.9825   -6.5189   -4.9356 H   0  0  0
   -4.3518   -8.1247   -5.2641 H   0  0  0
   -3.2977   -1.0891    1.2770 H   0  0  0
   -4.3055   -2.5563    1.2788 H   0  0  0
   -2.8133   -2.4962    5.7902 H   0  0  0
   -2.2883   -3.9376    4.8874 H   0  0  0
   -1.2805   -2.4705    4.8857 H   0  0  0
  1  2  1  0
  1 24  1  0
  1 25  1  0
  1 26  1  0
  2  3  2  0
  2  4  1  0
  4  5  1  0
  5  6  1  0
  5 27  1  0
  5 28  1  0
  6  7  1  0
  6 19  1  0
  6 29  1  0
  7  8  1  0
  7 30  1  0
  7 31  1  0
  8  9  1  0
  8 32  1  0
  8 33  1  0
  9 17  4  0
  9 10  4  0
 10 11  4  0
 10 34  1  0
 11 12  4  0
 12 17  4  0
 12 13  1  0
 13 14  1  0
 13 35  1  0
 13 36  1  0
 14 15  1  0
 14 37  1  0
 15 16  2  0
 15 18  1  0
 16 17  1  0
 18 38  1  0
 18 39  1  0
 19 20  1  0
 19 40  1  0
 19 41  1  0
 20 21  1  0
 21 22  2  0
 21 23  1  0
 23 42  1  0
 23 43  1  0
 23 44  1  0
M  END
$$$$
CC(=O)OCC(CCn1cnc2CNC(=Nc21)N)COC(=O)C
CHcorina  02210111253D 1   1.00000     0.00000     0
CORINA evaluation copy  2.4  150  11.12.1900 (2001-3)
 44 45  0  0  0  0              1 V2000
   -0.0186    1.4595   -0.0420 C   0  0  0
   -0.0217   -0.0473   -0.0653 C   0  0  0
    1.0221   -0.6528   -0.1256 O   0  0  0
   -1.1842   -0.7168   -0.0191 O   0  0  0
   -1.1872   -2.1686   -0.0416 C   0  0  0
   -2.6291   -2.6767    0.0208 C   0  0  0
   -2.6323   -4.2065   -0.0029 C   0  0  0
   -4.0742   -4.7145    0.0594 C   0  0  0
   -4.0772   -6.1793    0.0367 N   0  0  0
   -4.0315   -7.0110    1.1208 C   0  0  0
   -4.0520   -8.2527    0.7053 N   0  0  0
   -4.1098   -8.2718   -0.6194 C   0  0  0
   -4.1540   -9.4304   -1.5877 C   0  0  0
   -3.6646   -8.9114   -2.8785 N   0  0  0
   -3.9748   -7.6322   -3.2707 C   0  0  0
   -4.1844   -6.6686   -2.3959 N   0  0  0
   -4.1321   -6.9736   -1.0679 C   0  0  0
   -4.0687   -7.3491   -4.6114 N   0  0  0
   -3.2876   -2.1852    1.3114 C   0  0  0
   -2.5473   -2.6885    2.4546 O   0  0  0
   -2.9453   -2.3827    3.6995 C   0  0  0
   -3.9196   -1.6885    3.8688 O   0  0  0
   -2.1769   -2.9050    4.8859 C   0  0  0
    1.0086    1.8214   -0.0864 H   0  0  0
   -0.5744    1.8373   -0.9002 H   0  0  0
   -0.4877    1.8096    0.8775 H   0  0  0
   -0.7181   -2.5188   -0.9611 H   0  0  0
   -0.6315   -2.5465    0.8166 H   0  0  0
   -3.1849   -2.2988   -0.8374 H   0  0  0
   -2.1632   -4.5566   -0.9224 H   0  0  0
   -2.0765   -4.5843    0.8552 H   0  0  0
   -4.5433   -4.3644    0.9789 H   0  0  0
   -4.6299   -4.3367   -0.7987 H   0  0  0
   -3.9855   -6.6951    2.1525 H   0  0  0
   -3.5072  -10.2352   -1.2383 H   0  0  0
   -5.1771   -9.7915   -1.6929 H   0  0  0
   -3.1219   -9.4749   -3.4520 H   0  0  0
   -4.2870   -6.4501   -4.9032 H   0  0  0
   -3.9167   -8.0481   -5.2666 H   0  0  0
   -3.2853   -1.0953    1.3283 H   0  0  0
   -4.3148   -2.5471    1.3558 H   0  0  0
   -2.6460   -2.5549    5.8054 H   0  0  0
   -2.1792   -3.9949    4.8691 H   0  0  0
   -1.1497   -2.5431    4.8415 H   0  0  0
  1  2  1  0
  1 24  1  0
  1 25  1  0
  1 26  1  0
  2  3  2  0
  2  4  1  0
  4  5  1  0
  5  6  1  0
  5 27  1  0
  5 28  1  0
  6  7  1  0
  6 19  1  0
  6 29  1  0
  7  8  1  0
  7 30  1  0
  7 31  1  0
  8  9  1  0
  8 32  1  0
  8 33  1  0
  9 17  4  0
  9 10  4  0
 10 11  4  0
 10 34  1  0
 11 12  4  0
 12 17  4  0
 12 13  1  0
 13 14  1  0
 13 35  1  0
 13 36  1  0
 14 15  1  0
 14 37  1  0
 15 16  2  0
 15 18  1  0
 16 17  1  0
 18 38  1  0
 18 39  1  0
 19 20  1  0
 19 40  1  0
 19 41  1  0
 20 21  1  0
 21 22  2  0
 21 23  1  0
 23 42  1  0
 23 43  1  0
 23 44  1  0
M  END
$$$$
