OC(Cn1cncn1)(Cn2cncn2)c3ccc(F)cc3F
CHcorina  02210111263D 1   1.00000     0.00000     0
CORINA evaluation copy  2.4  150  11.12.1900 (2001-3)
 34 36  0  0  0  0              1 V2000
   -0.0173    1.4248    0.0099 O   0  0  0
    0.0021   -0.0041    0.0020 C   0  0  0
    0.7421   -0.5109    1.2415 C   0  0  0
    0.0564   -0.0384    2.4469 N   0  0  0
   -0.9263   -0.6681    3.1139 C   0  0  0
   -1.2691    0.0786    4.1320 N   0  0  0
   -0.5308    1.1877    4.1479 C   0  0  0
    0.2992    1.1595    3.1386 N   0  0  0
   -1.4333   -0.5336    0.0129 C   0  0  0
   -2.1419   -0.0483   -1.1740 N   0  0  0
   -2.2187   -0.6555   -2.3709 C   0  0  0
   -2.9408    0.0960   -3.1618 N   0  0  0
   -3.3407    1.1862   -2.5083 C   0  0  0
   -2.8810    1.1407   -1.2856 N   0  0  0
    0.7074   -0.4901   -1.2379 C   0  0  0
    1.2168    0.4204   -2.1447 C   0  0  0
    1.8642   -0.0238   -3.2818 C   0  0  0
    2.0035   -1.3820   -3.5141 C   0  0  0
    2.6369   -1.8160   -4.6257 F   0  0  0
    1.4940   -2.2945   -2.6069 C   0  0  0
    0.8501   -1.8483   -1.4654 C   0  0  0
    0.3523   -2.7379   -0.5789 F   0  0  0
    0.9045    1.7168    0.0026 H   0  0  0
    0.7568   -1.6008    1.2356 H   0  0  0
    1.7647   -0.1336    1.2338 H   0  0  0
   -1.3580   -1.6235    2.8543 H   0  0  0
   -0.6035    1.9795    4.8787 H   0  0  0
   -1.4185   -1.6235    0.0069 H   0  0  0
   -1.9435   -0.1821    0.9097 H   0  0  0
   -1.7632   -1.5988   -2.6339 H   0  0  0
   -3.9496    1.9770   -2.9208 H   0  0  0
    1.1083    1.4797   -1.9646 H   0  0  0
    2.2614    0.6885   -3.9899 H   0  0  0
    1.6021   -3.3538   -2.7872 H   0  0  0
  1  2  1  0
  1 23  1  0
  2  3  1  0
  2  9  1  0
  2 15  1  0
  3  4  1  0
  3 24  1  0
  3 25  1  0
  4  8  4  0
  4  5  4  0
  5  6  4  0
  5 26  1  0
  6  7  4  0
  7  8  4  0
  7 27  1  0
  9 10  1  0
  9 28  1  0
  9 29  1  0
 10 14  4  0
 10 11  4  0
 11 12  4  0
 11 30  1  0
 12 13  4  0
 13 14  4  0
 13 31  1  0
 15 21  4  0
 15 16  4  0
 16 17  4  0
 16 32  1  0
 17 18  4  0
 17 33  1  0
 18 19  1  0
 18 20  4  0
 20 21  4  0
 20 34  1  0
 21 22  1  0
M  END
$$$$
