CCC(=O)OC(OP(=O)(CCCCc1ccccc1)CC(=O)N2CC(C(C2)C(=O)O)C3CCCCC3)C(C)C
CHcorina  02210111263D 1   1.00000     0.00000     0
CORINA evaluation copy  2.4  150  11.12.1900 (2001-3)
 85 87  0  0  0  0              1 V2000
   -2.0204   -3.7530   -7.7251 C   0  0  0
   -0.8975   -3.2906   -6.7943 C   0  0  0
   -1.4884   -2.8146   -5.4923 C   0  0  0
   -2.6848   -2.8423   -5.3258 O   0  0  0
   -0.6855   -2.3599   -4.5174 O   0  0  0
   -1.2547   -1.9013   -3.2629 C   0  0  0
   -1.9739   -2.9714   -2.6467 O   0  0  0
   -3.2401   -2.3128   -1.9016 P   0  0  0
   -3.9719   -3.3596   -1.1539 O   0  0  0
   -2.6632   -1.0292   -0.7428 C   0  0  0
   -1.8618   -1.6829    0.3847 C   0  0  0
   -1.4200   -0.6118    1.3838 C   0  0  0
   -0.6186   -1.2655    2.5113 C   0  0  0
   -0.1835   -0.2104    3.4955 C   0  0  0
    1.0232    0.4417    3.3213 C   0  0  0
    1.4223    1.4093    4.2239 C   0  0  0
    0.6147    1.7255    5.3006 C   0  0  0
   -0.5920    1.0742    5.4742 C   0  0  0
   -0.9932    0.1093    4.5690 C   0  0  0
   -4.3493   -1.5613   -3.1378 C   0  0  0
   -4.8262   -2.6224   -4.0958 C   0  0  0
   -4.4578   -3.7701   -3.9619 O   0  0  0
   -5.6621   -2.2960   -5.1014 N   0  0  0
   -6.2390   -3.1918   -6.1306 C   0  0  0
   -7.6933   -2.7027   -6.3019 C   0  0  0
   -7.6758   -1.2311   -5.8388 C   0  0  0
   -6.2176   -0.9611   -5.4243 C   0  0  0
   -8.0799   -0.3211   -6.9699 C   0  0  0
   -7.3366   -0.1572   -7.9084 O   0  0  0
   -9.2654    0.3075   -6.9350 O   0  0  0
   -8.1156   -2.7934   -7.7697 C   0  0  0
   -7.8488   -4.2070   -8.2908 C   0  0  0
   -8.2709   -4.2976   -9.7586 C   0  0  0
   -9.7632   -3.9823   -9.8804 C   0  0  0
  -10.0300   -2.5687   -9.3594 C   0  0  0
   -9.6078   -2.4781   -7.8916 C   0  0  0
   -0.1318   -1.4390   -2.3321 C   0  0  0
    0.8656   -2.5814   -2.1296 C   0  0  0
    0.5858   -0.2399   -2.9551 C   0  0  0
   -1.5931   -4.0972   -8.6669 H   0  0  0
   -2.5690   -4.5692   -7.2551 H   0  0  0
   -2.6991   -2.9218   -7.9164 H   0  0  0
   -0.2188   -4.1218   -6.6030 H   0  0  0
   -0.3490   -2.4744   -7.2643 H   0  0  0
   -1.9334   -1.0701   -3.4542 H   0  0  0
   -2.0300   -0.3184   -1.2738 H   0  0  0
   -3.5224   -0.5067   -0.3222 H   0  0  0
   -2.4842   -2.4194    0.8931 H   0  0  0
   -0.9833   -2.1754   -0.0322 H   0  0  0
   -0.7977    0.1247    0.8755 H   0  0  0
   -2.2985   -0.1193    1.8008 H   0  0  0
   -1.2410   -2.0020    3.0197 H   0  0  0
    0.2599   -1.7580    2.0944 H   0  0  0
    1.6540    0.1947    2.4802 H   0  0  0
    2.3652    1.9182    4.0883 H   0  0  0
    0.9269    2.4811    6.0063 H   0  0  0
   -1.2226    1.3210    6.3155 H   0  0  0
   -1.9361   -0.3996    4.7046 H   0  0  0
   -5.2065   -1.1154   -2.6334 H   0  0  0
   -3.8104   -0.7903   -3.6885 H   0  0  0
   -5.6924   -3.0946   -7.0686 H   0  0  0
   -6.2238   -4.2258   -5.7862 H   0  0  0
   -8.3664   -3.2889   -5.6763 H   0  0  0
   -8.3403   -1.0945   -4.9856 H   0  0  0
   -6.1851   -0.3111   -4.5499 H   0  0  0
   -5.6638   -0.5157   -6.2508 H   0  0  0
   -9.5246    0.8915   -7.6608 H   0  0  0
   -7.5434   -2.0755   -8.3574 H   0  0  0
   -6.7857   -4.4316   -8.2040 H   0  0  0
   -8.4210   -4.9248   -7.7031 H   0  0  0
   -7.6988   -3.5796  -10.3462 H   0  0  0
   -8.0808   -5.3046  -10.1298 H   0  0  0
  -10.0640   -4.0469  -10.9261 H   0  0  0
  -10.3353   -4.7002   -9.2928 H   0  0  0
   -9.4577   -1.8509   -9.9470 H   0  0  0
  -11.0930   -2.3441   -9.4462 H   0  0  0
  -10.1800   -3.1961   -7.3039 H   0  0  0
   -9.7979   -1.4711   -7.5203 H   0  0  0
   -0.5537   -1.1500   -1.3695 H   0  0  0
    1.6655   -2.2520   -1.4665 H   0  0  0
    0.3543   -3.4357   -1.6858 H   0  0  0
    1.2874   -2.8703   -3.0922 H   0  0  0
    1.0076   -0.5288   -3.9177 H   0  0  0
   -0.1248    0.5740   -3.0993 H   0  0  0
    1.3857    0.0895   -2.2920 H   0  0  0
  1  2  1  0
  1 40  1  0
  1 41  1  0
  1 42  1  0
  2  3  1  0
  2 43  1  0
  2 44  1  0
  3  4  2  0
  3  5  1  0
  5  6  1  0
  6  7  1  0
  6 37  1  0
  6 45  1  0
  7  8  1  0
  8  9  2  0
  8 10  1  0
  8 20  1  0
 10 11  1  0
 10 46  1  0
 10 47  1  0
 11 12  1  0
 11 48  1  0
 11 49  1  0
 12 13  1  0
 12 50  1  0
 12 51  1  0
 13 14  1  0
 13 52  1  0
 13 53  1  0
 14 19  4  0
 14 15  4  0
 15 16  4  0
 15 54  1  0
 16 17  4  0
 16 55  1  0
 17 18  4  0
 17 56  1  0
 18 19  4  0
 18 57  1  0
 19 58  1  0
 20 21  1  0
 20 59  1  0
 20 60  1  0
 21 22  2  0
 21 23  1  0
 23 27  1  0
 23 24  1  0
 24 25  1  0
 24 61  1  0
 24 62  1  0
 25 26  1  0
 25 31  1  0
 25 63  1  0
 26 27  1  0
 26 28  1  0
 26 64  1  0
 27 65  1  0
 27 66  1  0
 28 29  2  0
 28 30  1  0
 30 67  1  0
 31 36  1  0
 31 32  1  0
 31 68  1  0
 32 33  1  0
 32 69  1  0
 32 70  1  0
 33 34  1  0
 33 71  1  0
 33 72  1  0
 34 35  1  0
 34 73  1  0
 34 74  1  0
 35 36  1  0
 35 75  1  0
 35 76  1  0
 36 77  1  0
 36 78  1  0
 37 38  1  0
 37 39  1  0
 37 79  1  0
 38 80  1  0
 38 81  1  0
 38 82  1  0
 39 83  1  0
 39 84  1  0
 39 85  1  0
M  END
$$$$
CCC(=O)OC(OP(=O)(CCCCc1ccccc1)CC(=O)N2CC(C(C2)C(=O)O)C3CCCCC3)C(C)C
CHcorina  02210111263D 1   1.00000    10.00000     0
CORINA evaluation copy  2.4  150  11.12.1900 (2001-3)
 85 87  0  0  0  0              1 V2000
   -2.1562   -2.3789   -5.3196 C   0  0  0
   -1.7118   -1.5410   -4.1191 C   0  0  0
   -2.8150   -1.5086   -3.0930 C   0  0  0
   -3.8506   -2.0954   -3.3007 O   0  0  0
   -2.6473   -0.8278   -1.9485 O   0  0  0
   -3.7103   -0.7965   -0.9599 C   0  0  0
   -4.0004   -2.1282   -0.5301 O   0  0  0
   -5.5897   -2.2015   -0.2829 P   0  0  0
   -5.9360   -3.5102    0.3151 O   0  0  0
   -6.0908   -0.8640    0.8500 C   0  0  0
   -5.4951   -1.1197    2.2359 C   0  0  0
   -5.8244    0.0565    3.1573 C   0  0  0
   -5.2288   -0.1991    4.5433 C   0  0  0
   -5.5531    0.9594    5.4509 C   0  0  0
   -4.6925    2.0387    5.5285 C   0  0  0
   -4.9899    3.1012    6.3609 C   0  0  0
   -6.1482    3.0849    7.1156 C   0  0  0
   -7.0090    2.0064    7.0373 C   0  0  0
   -6.7136    0.9455    6.2014 C   0  0  0
   -6.4614   -2.0099   -1.8725 C   0  0  0
   -6.0471   -3.1156   -2.8090 C   0  0  0
   -5.2457   -3.9499   -2.4452 O   0  0  0
   -6.5673   -3.1771   -4.0508 N   0  0  0
   -6.2562   -4.2030   -5.0628 C   0  0  0
   -7.4882   -4.2204   -6.0016 C   0  0  0
   -7.8648   -2.7160   -6.0494 C   0  0  0
   -7.5438   -2.2359   -4.6184 C   0  0  0
   -7.0219   -1.9869   -7.0638 C   0  0  0
   -5.9731   -1.4876   -6.7311 O   0  0  0
   -7.4362   -1.8922   -8.3371 O   0  0  0
   -7.1105   -4.7352   -7.3920 C   0  0  0
   -6.4658   -6.1171   -7.2665 C   0  0  0
   -7.4565   -7.0848   -6.6161 C   0  0  0
   -8.7141   -7.1854   -7.4817 C   0  0  0
   -9.3587   -5.8035   -7.6073 C   0  0  0
   -8.3680   -4.8358   -8.2577 C   0  0  0
   -3.2658    0.0413    0.2407 C   0  0  0
   -1.9606   -0.5254    0.8029 C   0  0  0
   -3.0444    1.4891   -0.2018 C   0  0  0
   -1.3583   -2.4024   -6.0618 H   0  0  0
   -2.3775   -3.3946   -4.9918 H   0  0  0
   -3.0496   -1.9367   -5.7606 H   0  0  0
   -0.8184   -1.9833   -3.6781 H   0  0  0
   -1.4905   -0.5253   -4.4469 H   0  0  0
   -4.6037   -0.3543   -1.4008 H   0  0  0
   -5.7274    0.0903    0.4687 H   0  0  0
   -7.1781   -0.8366    0.9212 H   0  0  0
   -5.9180   -2.0350    2.6499 H   0  0  0
   -4.4134   -1.2244    2.1528 H   0  0  0
   -5.4015    0.9719    2.7433 H   0  0  0
   -6.9062    0.1612    3.2405 H   0  0  0
   -5.6516   -1.1145    4.9573 H   0  0  0
   -4.1470   -0.3038    4.4602 H   0  0  0
   -3.7877    2.0514    4.9390 H   0  0  0
   -4.3173    3.9440    6.4221 H   0  0  0
   -6.3803    3.9149    7.7666 H   0  0  0
   -7.9137    1.9936    7.6271 H   0  0  0
   -7.3862    0.1027    6.1402 H   0  0  0
   -7.5373   -2.0596   -1.7051 H   0  0  0
   -6.2063   -1.0461   -2.3129 H   0  0  0
   -5.3593   -3.9288   -5.6183 H   0  0  0
   -6.1257   -5.1761   -4.5894 H   0  0  0
   -8.2973   -4.8119   -5.5731 H   0  0  0
   -8.9253   -2.5903   -6.2674 H   0  0  0
   -8.4526   -2.2281   -4.0166 H   0  0  0
   -7.1127   -1.2353   -4.6502 H   0  0  0
   -6.8953   -1.4244   -8.9880 H   0  0  0
   -6.4047   -4.0458   -7.8553 H   0  0  0
   -6.1967   -6.4838   -8.2570 H   0  0  0
   -5.5699   -6.0454   -6.6498 H   0  0  0
   -6.9973   -8.0692   -6.5266 H   0  0  0
   -7.7256   -6.7180   -5.6256 H   0  0  0
   -8.4449   -7.5521   -8.4723 H   0  0  0
   -9.4199   -7.8748   -7.0184 H   0  0  0
  -10.2546   -5.8752   -8.2239 H   0  0  0
   -9.6278   -5.4368   -6.6167 H   0  0  0
   -8.8273   -3.8514   -8.3471 H   0  0  0
   -8.0989   -5.2026   -9.2482 H   0  0  0
   -4.0368    0.0106    1.0106 H   0  0  0
   -1.6440    0.0715    1.6582 H   0  0  0
   -2.1184   -1.5568    1.1182 H   0  0  0
   -1.1897   -0.4947    0.0330 H   0  0  0
   -2.2734    1.5199   -0.9717 H   0  0  0
   -3.9742    1.8929   -0.6024 H   0  0  0
   -2.7277    2.0860    0.6535 H   0  0  0
  1  2  1  0
  1 40  1  0
  1 41  1  0
  1 42  1  0
  2  3  1  0
  2 43  1  0
  2 44  1  0
  3  4  2  0
  3  5  1  0
  5  6  1  0
  6  7  1  0
  6 37  1  0
  6 45  1  0
  7  8  1  0
  8  9  2  0
  8 10  1  0
  8 20  1  0
 10 11  1  0
 10 46  1  0
 10 47  1  0
 11 12  1  0
 11 48  1  0
 11 49  1  0
 12 13  1  0
 12 50  1  0
 12 51  1  0
 13 14  1  0
 13 52  1  0
 13 53  1  0
 14 19  4  0
 14 15  4  0
 15 16  4  0
 15 54  1  0
 16 17  4  0
 16 55  1  0
 17 18  4  0
 17 56  1  0
 18 19  4  0
 18 57  1  0
 19 58  1  0
 20 21  1  0
 20 59  1  0
 20 60  1  0
 21 22  2  0
 21 23  1  0
 23 27  1  0
 23 24  1  0
 24 25  1  0
 24 61  1  0
 24 62  1  0
 25 26  1  0
 25 31  1  0
 25 63  1  0
 26 27  1  0
 26 28  1  0
 26 64  1  0
 27 65  1  0
 27 66  1  0
 28 29  2  0
 28 30  1  0
 30 67  1  0
 31 36  1  0
 31 32  1  0
 31 68  1  0
 32 33  1  0
 32 69  1  0
 32 70  1  0
 33 34  1  0
 33 71  1  0
 33 72  1  0
 34 35  1  0
 34 73  1  0
 34 74  1  0
 35 36  1  0
 35 75  1  0
 35 76  1  0
 36 77  1  0
 36 78  1  0
 37 38  1  0
 37 39  1  0
 37 79  1  0
 38 80  1  0
 38 81  1  0
 38 82  1  0
 39 83  1  0
 39 84  1  0
 39 85  1  0
M  END
$$$$
CCC(=O)OC(OP(=O)(CCCCc1ccccc1)CC(=O)N2CC(C(C2)C(=O)O)C3CCCCC3)C(C)C
CHcorina  02210111263D 1   1.00000    24.00000     0
CORINA evaluation copy  2.4  150  11.12.1900 (2001-3)
 85 87  0  0  0  0              1 V2000
   -2.8255   -0.8082   -3.2456 C   0  0  0
   -2.7263   -0.4413   -1.7636 C   0  0  0
   -4.0373   -0.7404   -1.0832 C   0  0  0
   -4.9566   -1.1999   -1.7184 O   0  0  0
   -4.1836   -0.4964    0.2286 O   0  0  0
   -5.4468   -0.7846    0.8842 C   0  0  0
   -5.7427   -2.1768    0.7569 O   0  0  0
   -7.3469   -2.3127    0.7493 P   0  0  0
   -7.7212   -3.7430    0.8178 O   0  0  0
   -8.0381   -1.4341    2.1893 C   0  0  0
   -7.5944   -2.1344    3.4752 C   0  0  0
   -8.0718   -1.3291    4.6854 C   0  0  0
   -7.6281   -2.0294    5.9713 C   0  0  0
   -8.0983   -1.2362    7.1632 C   0  0  0
   -7.2948   -0.2442    7.6940 C   0  0  0
   -7.7260    0.4833    8.7872 C   0  0  0
   -8.9611    0.2194    9.3496 C   0  0  0
   -9.7648   -0.7717    8.8185 C   0  0  0
   -9.3352   -1.4966    7.7223 C   0  0  0
   -8.0113   -1.5836   -0.7838 C   0  0  0
   -7.4400   -2.3099   -1.9742 C   0  0  0
   -6.6633   -3.2268   -1.8096 O   0  0  0
   -7.7921   -1.9406   -3.2216 N   0  0  0
   -7.3173   -2.5636   -4.4658 C   0  0  0
   -8.0059   -1.8312   -5.6367 C   0  0  0
   -9.2613   -1.2109   -4.9684 C   0  0  0
   -8.7221   -0.8493   -3.5643 C   0  0  0
   -9.7146    0.0207   -5.7091 C   0  0  0
   -9.5478    0.1032   -6.9030 O   0  0  0
  -10.3036    1.0260   -5.0427 O   0  0  0
   -7.0969   -0.7382   -6.2024 C   0  0  0
   -6.8295    0.3120   -5.1226 C   0  0  0
   -5.4852    0.9906   -5.3921 C   0  0  0
   -5.2475    1.0717   -6.9012 C   0  0  0
   -4.9714   -0.3291   -7.4506 C   0  0  0
   -5.7722   -1.3584   -6.6507 C   0  0  0
   -5.3475   -0.4177    2.3662 C   0  0  0
   -4.1464   -1.1319    2.9891 C   0  0  0
   -5.1700    1.0955    2.5062 C   0  0  0
   -1.8773   -0.5919   -3.7377 H   0  0  0
   -3.0513   -1.8702   -3.3427 H   0  0  0
   -3.6187   -0.2240   -3.7122 H   0  0  0
   -1.9332   -1.0255   -1.2969 H   0  0  0
   -2.5006    0.6206   -1.6665 H   0  0  0
   -6.2399   -0.2004    0.4176 H   0  0  0
   -7.6790   -0.4049    2.1936 H   0  0  0
   -9.1264   -1.4390    2.1299 H   0  0  0
   -8.0256   -3.1348    3.5115 H   0  0  0
   -6.5069   -2.2067    3.4929 H   0  0  0
   -7.6405   -0.3287    4.6491 H   0  0  0
   -9.1592   -1.2568    4.6676 H   0  0  0
   -8.0593   -3.0298    6.0075 H   0  0  0
   -6.5406   -2.1017    5.9890 H   0  0  0
   -6.3300   -0.0380    7.2546 H   0  0  0
   -7.0980    1.2578    9.2022 H   0  0  0
   -9.2978    0.7874   10.2043 H   0  0  0
  -10.7294   -0.9782    9.2580 H   0  0  0
   -9.9632   -2.2710    7.3072 H   0  0  0
   -9.0974   -1.6756   -0.7889 H   0  0  0
   -7.7357   -0.5302   -0.8342 H   0  0  0
   -6.2355   -2.4564   -4.5455 H   0  0  0
   -7.5863   -3.6197   -4.4786 H   0  0  0
   -8.2923   -2.5354   -6.4178 H   0  0  0
  -10.0672   -1.9414   -4.8974 H   0  0  0
   -9.5393   -0.8024   -2.8445 H   0  0  0
   -8.1888    0.1008   -3.5957 H   0  0  0
  -10.5945    1.8163   -5.5180 H   0  0  0
   -7.5841   -0.2661   -7.0555 H   0  0  0
   -7.6231    1.0590   -5.1380 H   0  0  0
   -6.8036   -0.1702   -4.1454 H   0  0  0
   -5.4950    1.9961   -4.9713 H   0  0  0
   -4.6864    0.4111   -4.9292 H   0  0  0
   -6.1320    1.4844   -7.3865 H   0  0  0
   -4.3906    1.7153   -7.0999 H   0  0  0
   -5.2676   -0.3732   -8.4987 H   0  0  0
   -3.9075   -0.5499   -7.3644 H   0  0  0
   -5.1992   -1.6636   -5.7751 H   0  0  0
   -5.9717   -2.2288   -7.2757 H   0  0  0
   -6.2591   -0.7255    2.8785 H   0  0  0
   -4.0757   -0.8706    4.0450 H   0  0  0
   -4.2729   -2.2100    2.8894 H   0  0  0
   -3.2349   -0.8241    2.4768 H   0  0  0
   -4.2584    1.4033    1.9939 H   0  0  0
   -6.0257    1.6043    2.0625 H   0  0  0
   -5.0993    1.3569    3.5621 H   0  0  0
  1  2  1  0
  1 40  1  0
  1 41  1  0
  1 42  1  0
  2  3  1  0
  2 43  1  0
  2 44  1  0
  3  4  2  0
  3  5  1  0
  5  6  1  0
  6  7  1  0
  6 37  1  0
  6 45  1  0
  7  8  1  0
  8  9  2  0
  8 10  1  0
  8 20  1  0
 10 11  1  0
 10 46  1  0
 10 47  1  0
 11 12  1  0
 11 48  1  0
 11 49  1  0
 12 13  1  0
 12 50  1  0
 12 51  1  0
 13 14  1  0
 13 52  1  0
 13 53  1  0
 14 19  4  0
 14 15  4  0
 15 16  4  0
 15 54  1  0
 16 17  4  0
 16 55  1  0
 17 18  4  0
 17 56  1  0
 18 19  4  0
 18 57  1  0
 19 58  1  0
 20 21  1  0
 20 59  1  0
 20 60  1  0
 21 22  2  0
 21 23  1  0
 23 27  1  0
 23 24  1  0
 24 25  1  0
 24 61  1  0
 24 62  1  0
 25 26  1  0
 25 31  1  0
 25 63  1  0
 26 27  1  0
 26 28  1  0
 26 64  1  0
 27 65  1  0
 27 66  1  0
 28 29  2  0
 28 30  1  0
 30 67  1  0
 31 36  1  0
 31 32  1  0
 31 68  1  0
 32 33  1  0
 32 69  1  0
 32 70  1  0
 33 34  1  0
 33 71  1  0
 33 72  1  0
 34 35  1  0
 34 73  1  0
 34 74  1  0
 35 36  1  0
 35 75  1  0
 35 76  1  0
 36 77  1  0
 36 78  1  0
 37 38  1  0
 37 39  1  0
 37 79  1  0
 38 80  1  0
 38 81  1  0
 38 82  1  0
 39 83  1  0
 39 84  1  0
 39 85  1  0
M  END
$$$$
