 
WItclserve11290013443D 0   0.00000     0.00000cramer
 
  6  5  0  0  0  0  0  0  0  0  1 V2000
-10	10	0	C   0  0  0  0  0  0  0  0  0  0  0  0
10	10	0	C  0  0  0  0  0  0  0  0  0  0  0  0
0	10	0	C  0  0  0  0  0  0  0  0  0  0  0  0
0	0	0	C  0  0  0  0  0  0  0  0  0  0  0  0
-10	-10	0	C  0  0  0  0  0  0  0  0  0  0  0
10	-10	0	C  0  0  0  0  0  0  0  0  0  0  0
  1  3  1  0  0  0  0
  2  3  1  0  0  0  0
  3  4  2  0  0  0  0
  4  5  1  0  0  0  0
  4  6  1  0  0  0  0
M  END
$$$$
