 
WItclserve11290013443D 0   0.00000     0.00000cramer
 
  8  7  0  0  0  0  0  0  0  0  1 V2000
   -0.7650    0.0000    0.0000 A   0  0  0  0  0  0  0  0  0  0  0  0
   -1.3660   -1.6995    0.0350 B  0  0  0  0  0  0  0  0  0  0  0  0
   -1.3660    0.8194   -1.4893 C  0  0  0  0  0  0  0  0  0  0  0  0
   -1.3660    0.8801    1.4543 C  0  0  0  0  0  0  0  0  0  0  0  0
    0.7650    0.0000    0.0000 A   0  0  0  0  0  0  0  0  0  0  0  0
    1.3660   -0.8194    1.4893 E  0  0  0  0  0  0  0  0  0  0  0  0
  1  3  1  0  0  0  0
  2  3  1  0  0  0  0
  3  4  2  0  0  0  0
  4  5  1  0  0  0  0
  4  6  1  0  0  0  0
M  END
$$$$
